<connections>
    <connection from="0:1" to="1:2" fromLane="0" toLane="0"/>
	<connection from="1:2" to="2:3" fromLane="0" toLane="0"/>
    <connection from="2:3" to="3:4" fromLane="0" toLane="0"/>

	<connection from="4:3" to="3:2" fromLane="0" toLane="0"/>
	<connection from="3:2" to="2:1" fromLane="0" toLane="0"/>
	<connection from="2:1" to="1:0" fromLane="0" toLane="0"/>
</connections>
