<nodes>
	<node id="0" x="0" y="0" type="priority"/>
	<node id="1" x="50" y="0" type="priority"/>
	<node id="2" x="150" y="0" type="traffic_light"/>
	<node id="3" x="250" y="0" type="priority"/>
	<node id="4" x="300" y="0" type="priority"/>
</nodes>
