<edges>
	<edge id="0:1" from="0" to="1" type="uMinor" />
	<edge id="1:2" from="1" to="2" type="uMinor" />
	<edge id="2:3" from="2" to="3" type="uMinor" />
	<edge id="3:4" from="3" to="4" type="uMinor" />
	<edge id="1:0" from="1" to="0" type="uMinor" />
	<edge id="2:1" from="2" to="1" type="uMinor" />
	<edge id="3:2" from="3" to="2" type="uMinor" />
	<edge id="4:3" from="4" to="3" type="uMinor" />
</edges>
