<routes>
    <vType id="typeHuman" accel="0.8" decel="4.5" sigma="0.5" length="5" minGap="2.5" maxSpeed="25" guiShape="passenger" color="1,1,0">
    </vType>

    <vType id="typeITSCV" accel="0.8" decel="4.5" sigma="0.5" length="5" minGap="2.5" maxSpeed="25" guiShape="passenger" color="1,0,0">
        <carFollowing-Krauss tau="1.0"/>
    </vType>

    <route edges="a1:b1 b1:c1 c1:c2 c2:b2 b2:b1 b1:a1" id="a1:b1TOb1:a1"/>
    <route edges="a1:b1 b1:b2 b2:a2" id="a1:b1TOb2:a2"/>
    <route edges="a1:b1 b1:b2 b2:b3 b3:a3" id="a1:b1TOb3:a3"/>
    <route edges="a1:b1 b1:b0" id="a1:b1TOb1:b0"/>
    <route edges="a1:b1 b1:c1 c1:c0" id="a1:b1TOc1:c0"/>
    <route edges="a1:b1 b1:c1 c1:d1 d1:d0" id="a1:b1TOd1:d0"/>
    <route edges="a1:b1 b1:b2 b2:b3 b3:b4" id="a1:b1TOb3:b4"/>
    <route edges="a1:b1 b1:b2 b2:b3 b3:c3 c3:c4" id="a1:b1TOc3:c4"/>
    <route edges="a1:b1 b1:b2 b2:b3 b3:c3 c3:d3 d3:d4" id="a1:b1TOd3:d4"/>
    <route edges="a1:b1 b1:c1 c1:d1 d1:e1" id="a1:b1TOd1:e1"/>
    <route edges="a1:b1 b1:b2 b2:c2 c2:d2 d2:e2" id="a1:b1TOd2:e2"/>
    <route edges="a1:b1 b1:b2 b2:b3 b3:c3 c3:d3 d3:e3" id="a1:b1TOd3:e3"/>
    <route edges="a2:b2 b2:b1 b1:a1" id="a2:b2TOb1:a1"/>
    <route edges="a2:b2 b2:c2 c2:c1 c1:b1 b1:b2 b2:a2" id="a2:b2TOb2:a2"/>
    <route edges="a2:b2 b2:b3 b3:a3" id="a2:b2TOb3:a3"/>
    <route edges="a2:b2 b2:b1 b1:b0" id="a2:b2TOb1:b0"/>
    <route edges="a2:b2 b2:b1 b1:c1 c1:c0" id="a2:b2TOc1:c0"/>
    <route edges="a2:b2 b2:b1 b1:c1 c1:d1 d1:d0" id="a2:b2TOd1:d0"/>
    <route edges="a2:b2 b2:b3 b3:b4" id="a2:b2TOb3:b4"/>
    <route edges="a2:b2 b2:b3 b3:c3 c3:c4" id="a2:b2TOc3:c4"/>
    <route edges="a2:b2 b2:b3 b3:c3 c3:d3 d3:d4" id="a2:b2TOd3:d4"/>
    <route edges="a2:b2 b2:b1 b1:c1 c1:d1 d1:e1" id="a2:b2TOd1:e1"/>
    <route edges="a2:b2 b2:c2 c2:d2 d2:e2" id="a2:b2TOd2:e2"/>
    <route edges="a2:b2 b2:b3 b3:c3 c3:d3 d3:e3" id="a2:b2TOd3:e3"/>
    <route edges="a3:b3 b3:b2 b2:b1 b1:a1" id="a3:b3TOb1:a1"/>
    <route edges="a3:b3 b3:b2 b2:a2" id="a3:b3TOb2:a2"/>
    <route edges="a3:b3 b3:c3 c3:c2 c2:b2 b2:b3 b3:a3" id="a3:b3TOb3:a3"/>
    <route edges="a3:b3 b3:b2 b2:b1 b1:b0" id="a3:b3TOb1:b0"/>
    <route edges="a3:b3 b3:b2 b2:b1 b1:c1 c1:c0" id="a3:b3TOc1:c0"/>
    <route edges="a3:b3 b3:b2 b2:b1 b1:c1 c1:d1 d1:d0" id="a3:b3TOd1:d0"/>
    <route edges="a3:b3 b3:b4" id="a3:b3TOb3:b4"/>
    <route edges="a3:b3 b3:c3 c3:c4" id="a3:b3TOc3:c4"/>
    <route edges="a3:b3 b3:c3 c3:d3 d3:d4" id="a3:b3TOd3:d4"/>
    <route edges="a3:b3 b3:b2 b2:b1 b1:c1 c1:d1 d1:e1" id="a3:b3TOd1:e1"/>
    <route edges="a3:b3 b3:b2 b2:c2 c2:d2 d2:e2" id="a3:b3TOd2:e2"/>
    <route edges="a3:b3 b3:c3 c3:d3 d3:e3" id="a3:b3TOd3:e3"/>
    <route edges="b0:b1 b1:a1" id="b0:b1TOb1:a1"/>
    <route edges="b0:b1 b1:b2 b2:a2" id="b0:b1TOb2:a2"/>
    <route edges="b0:b1 b1:b2 b2:b3 b3:a3" id="b0:b1TOb3:a3"/>
    <route edges="b0:b1 b1:c1 c1:c2 c2:b2 b2:b1 b1:b0" id="b0:b1TOb1:b0"/>
    <route edges="b0:b1 b1:c1 c1:c0" id="b0:b1TOc1:c0"/>
    <route edges="b0:b1 b1:c1 c1:d1 d1:d0" id="b0:b1TOd1:d0"/>
    <route edges="b0:b1 b1:b2 b2:b3 b3:b4" id="b0:b1TOb3:b4"/>
    <route edges="b0:b1 b1:b2 b2:b3 b3:c3 c3:c4" id="b0:b1TOc3:c4"/>
    <route edges="b0:b1 b1:b2 b2:b3 b3:c3 c3:d3 d3:d4" id="b0:b1TOd3:d4"/>
    <route edges="b0:b1 b1:c1 c1:d1 d1:e1" id="b0:b1TOd1:e1"/>
    <route edges="b0:b1 b1:b2 b2:c2 c2:d2 d2:e2" id="b0:b1TOd2:e2"/>
    <route edges="b0:b1 b1:b2 b2:b3 b3:c3 c3:d3 d3:e3" id="b0:b1TOd3:e3"/>
    <route edges="c0:c1 c1:b1 b1:a1" id="c0:c1TOb1:a1"/>
    <route edges="c0:c1 c1:b1 b1:b2 b2:a2" id="c0:c1TOb2:a2"/>
    <route edges="c0:c1 c1:b1 b1:b2 b2:b3 b3:a3" id="c0:c1TOb3:a3"/>
    <route edges="c0:c1 c1:b1 b1:b0" id="c0:c1TOb1:b0"/>
    <route edges="c0:c1 c1:c2 c2:b2 b2:b1 b1:c1 c1:c0" id="c0:c1TOc1:c0"/>
    <route edges="c0:c1 c1:d1 d1:d0" id="c0:c1TOd1:d0"/>
    <route edges="c0:c1 c1:b1 b1:b2 b2:b3 b3:b4" id="c0:c1TOb3:b4"/>
    <route edges="c0:c1 c1:c2 c2:c3 c3:c4" id="c0:c1TOc3:c4"/>
    <route edges="c0:c1 c1:c2 c2:c3 c3:d3 d3:d4" id="c0:c1TOd3:d4"/>
    <route edges="c0:c1 c1:d1 d1:e1" id="c0:c1TOd1:e1"/>
    <route edges="c0:c1 c1:c2 c2:d2 d2:e2" id="c0:c1TOd2:e2"/>
    <route edges="c0:c1 c1:c2 c2:c3 c3:d3 d3:e3" id="c0:c1TOd3:e3"/>
    <route edges="d0:d1 d1:c1 c1:b1 b1:a1" id="d0:d1TOb1:a1"/>
    <route edges="d0:d1 d1:c1 c1:b1 b1:b2 b2:a2" id="d0:d1TOb2:a2"/>
    <route edges="d0:d1 d1:c1 c1:b1 b1:b2 b2:b3 b3:a3" id="d0:d1TOb3:a3"/>
    <route edges="d0:d1 d1:c1 c1:b1 b1:b0" id="d0:d1TOb1:b0"/>
    <route edges="d0:d1 d1:c1 c1:c0" id="d0:d1TOc1:c0"/>
    <route edges="d0:d1 d1:d2 d2:c2 c2:c1 c1:d1 d1:d0" id="d0:d1TOd1:d0"/>
    <route edges="d0:d1 d1:c1 c1:b1 b1:b2 b2:b3 b3:b4" id="d0:d1TOb3:b4"/>
    <route edges="d0:d1 d1:c1 c1:c2 c2:c3 c3:c4" id="d0:d1TOc3:c4"/>
    <route edges="d0:d1 d1:d2 d2:d3 d3:d4" id="d0:d1TOd3:d4"/>
    <route edges="d0:d1 d1:e1" id="d0:d1TOd1:e1"/>
    <route edges="d0:d1 d1:d2 d2:e2" id="d0:d1TOd2:e2"/>
    <route edges="d0:d1 d1:d2 d2:d3 d3:e3" id="d0:d1TOd3:e3"/>
    <route edges="b4:b3 b3:b2 b2:b1 b1:a1" id="b4:b3TOb1:a1"/>
    <route edges="b4:b3 b3:b2 b2:a2" id="b4:b3TOb2:a2"/>
    <route edges="b4:b3 b3:a3" id="b4:b3TOb3:a3"/>
    <route edges="b4:b3 b3:b2 b2:b1 b1:b0" id="b4:b3TOb1:b0"/>
    <route edges="b4:b3 b3:b2 b2:b1 b1:c1 c1:c0" id="b4:b3TOc1:c0"/>
    <route edges="b4:b3 b3:b2 b2:b1 b1:c1 c1:d1 d1:d0" id="b4:b3TOd1:d0"/>
    <route edges="b4:b3 b3:c3 c3:c2 c2:b2 b2:b3 b3:b4" id="b4:b3TOb3:b4"/>
    <route edges="b4:b3 b3:c3 c3:c4" id="b4:b3TOc3:c4"/>
    <route edges="b4:b3 b3:c3 c3:d3 d3:d4" id="b4:b3TOd3:d4"/>
    <route edges="b4:b3 b3:b2 b2:b1 b1:c1 c1:d1 d1:e1" id="b4:b3TOd1:e1"/>
    <route edges="b4:b3 b3:b2 b2:c2 c2:d2 d2:e2" id="b4:b3TOd2:e2"/>
    <route edges="b4:b3 b3:c3 c3:d3 d3:e3" id="b4:b3TOd3:e3"/>
    <route edges="c4:c3 c3:b3 b3:b2 b2:b1 b1:a1" id="c4:c3TOb1:a1"/>
    <route edges="c4:c3 c3:b3 b3:b2 b2:a2" id="c4:c3TOb2:a2"/>
    <route edges="c4:c3 c3:b3 b3:a3" id="c4:c3TOb3:a3"/>
    <route edges="c4:c3 c3:b3 b3:b2 b2:b1 b1:b0" id="c4:c3TOb1:b0"/>
    <route edges="c4:c3 c3:c2 c2:c1 c1:c0" id="c4:c3TOc1:c0"/>
    <route edges="c4:c3 c3:c2 c2:c1 c1:d1 d1:d0" id="c4:c3TOd1:d0"/>
    <route edges="c4:c3 c3:b3 b3:b4" id="c4:c3TOb3:b4"/>
    <route edges="c4:c3 c3:c2 c2:b2 b2:b3 b3:c3 c3:c4" id="c4:c3TOc3:c4"/>
    <route edges="c4:c3 c3:d3 d3:d4" id="c4:c3TOd3:d4"/>
    <route edges="c4:c3 c3:c2 c2:c1 c1:d1 d1:e1" id="c4:c3TOd1:e1"/>
    <route edges="c4:c3 c3:c2 c2:d2 d2:e2" id="c4:c3TOd2:e2"/>
    <route edges="c4:c3 c3:d3 d3:e3" id="c4:c3TOd3:e3"/>
    <route edges="d4:d3 d3:c3 c3:b3 b3:b2 b2:b1 b1:a1" id="d4:d3TOb1:a1"/>
    <route edges="d4:d3 d3:c3 c3:b3 b3:b2 b2:a2" id="d4:d3TOb2:a2"/>
    <route edges="d4:d3 d3:c3 c3:b3 b3:a3" id="d4:d3TOb3:a3"/>
    <route edges="d4:d3 d3:c3 c3:b3 b3:b2 b2:b1 b1:b0" id="d4:d3TOb1:b0"/>
    <route edges="d4:d3 d3:c3 c3:c2 c2:c1 c1:c0" id="d4:d3TOc1:c0"/>
    <route edges="d4:d3 d3:d2 d2:d1 d1:d0" id="d4:d3TOd1:d0"/>
    <route edges="d4:d3 d3:c3 c3:b3 b3:b4" id="d4:d3TOb3:b4"/>
    <route edges="d4:d3 d3:c3 c3:c4" id="d4:d3TOc3:c4"/>
    <route edges="d4:d3 d3:d2 d2:c2 c2:c3 c3:d3 d3:d4" id="d4:d3TOd3:d4"/>
    <route edges="d4:d3 d3:d2 d2:d1 d1:e1" id="d4:d3TOd1:e1"/>
    <route edges="d4:d3 d3:d2 d2:e2" id="d4:d3TOd2:e2"/>
    <route edges="d4:d3 d3:e3" id="d4:d3TOd3:e3"/>
    <route edges="e1:d1 d1:c1 c1:b1 b1:a1" id="e1:d1TOb1:a1"/>
    <route edges="e1:d1 d1:c1 c1:b1 b1:b2 b2:a2" id="e1:d1TOb2:a2"/>
    <route edges="e1:d1 d1:c1 c1:b1 b1:b2 b2:b3 b3:a3" id="e1:d1TOb3:a3"/>
    <route edges="e1:d1 d1:c1 c1:b1 b1:b0" id="e1:d1TOb1:b0"/>
    <route edges="e1:d1 d1:c1 c1:c0" id="e1:d1TOc1:c0"/>
    <route edges="e1:d1 d1:d0" id="e1:d1TOd1:d0"/>
    <route edges="e1:d1 d1:c1 c1:b1 b1:b2 b2:b3 b3:b4" id="e1:d1TOb3:b4"/>
    <route edges="e1:d1 d1:c1 c1:c2 c2:c3 c3:c4" id="e1:d1TOc3:c4"/>
    <route edges="e1:d1 d1:d2 d2:d3 d3:d4" id="e1:d1TOd3:d4"/>
    <route edges="e1:d1 d1:d2 d2:c2 c2:c1 c1:d1 d1:e1" id="e1:d1TOd1:e1"/>
    <route edges="e1:d1 d1:d2 d2:e2" id="e1:d1TOd2:e2"/>
    <route edges="e1:d1 d1:d2 d2:d3 d3:e3" id="e1:d1TOd3:e3"/>
    <route edges="e2:d2 d2:c2 c2:b2 b2:b1 b1:a1" id="e2:d2TOb1:a1"/>
    <route edges="e2:d2 d2:c2 c2:b2 b2:a2" id="e2:d2TOb2:a2"/>
    <route edges="e2:d2 d2:c2 c2:b2 b2:b3 b3:a3" id="e2:d2TOb3:a3"/>
    <route edges="e2:d2 d2:c2 c2:b2 b2:b1 b1:b0" id="e2:d2TOb1:b0"/>
    <route edges="e2:d2 d2:c2 c2:c1 c1:c0" id="e2:d2TOc1:c0"/>
    <route edges="e2:d2 d2:d1 d1:d0" id="e2:d2TOd1:d0"/>
    <route edges="e2:d2 d2:c2 c2:b2 b2:b3 b3:b4" id="e2:d2TOb3:b4"/>
    <route edges="e2:d2 d2:c2 c2:c3 c3:c4" id="e2:d2TOc3:c4"/>
    <route edges="e2:d2 d2:d3 d3:d4" id="e2:d2TOd3:d4"/>
    <route edges="e2:d2 d2:d1 d1:e1" id="e2:d2TOd1:e1"/>
    <route edges="e2:d2 d2:d1 d1:c1 c1:c2 c2:d2 d2:e2" id="e2:d2TOd2:e2"/>
    <route edges="e2:d2 d2:d3 d3:e3" id="e2:d2TOd3:e3"/>
    <route edges="e3:d3 d3:c3 c3:b3 b3:b2 b2:b1 b1:a1" id="e3:d3TOb1:a1"/>
    <route edges="e3:d3 d3:c3 c3:b3 b3:b2 b2:a2" id="e3:d3TOb2:a2"/>
    <route edges="e3:d3 d3:c3 c3:b3 b3:a3" id="e3:d3TOb3:a3"/>
    <route edges="e3:d3 d3:c3 c3:b3 b3:b2 b2:b1 b1:b0" id="e3:d3TOb1:b0"/>
    <route edges="e3:d3 d3:c3 c3:c2 c2:c1 c1:c0" id="e3:d3TOc1:c0"/>
    <route edges="e3:d3 d3:d2 d2:d1 d1:d0" id="e3:d3TOd1:d0"/>
    <route edges="e3:d3 d3:c3 c3:b3 b3:b4" id="e3:d3TOb3:b4"/>
    <route edges="e3:d3 d3:c3 c3:c4" id="e3:d3TOc3:c4"/>
    <route edges="e3:d3 d3:d4" id="e3:d3TOd3:d4"/>
    <route edges="e3:d3 d3:d2 d2:d1 d1:e1" id="e3:d3TOd1:e1"/>
    <route edges="e3:d3 d3:d2 d2:e2" id="e3:d3TOd2:e2"/>
    <route edges="e3:d3 d3:d2 d2:c2 c2:c3 c3:d3 d3:e3" id="e3:d3TOd3:e3"/>
    
    <vehicle id="0" type="typeITSCV" route="e1:d1TOb3:a3" depart="0" />
    <vehicle id="1" type="typeITSCV" route="b4:b3TOc3:c4" depart="4" />
    <vehicle id="2" type="typeITSCV" route="e3:d3TOd1:e1" depart="7" />
    <vehicle id="3" type="typeITSCV" route="e3:d3TOb3:a3" depart="15" />
    <vehicle id="4" type="typeITSCV" route="c0:c1TOb1:b0" depart="16" />
    <vehicle id="5" type="typeITSCV" route="c0:c1TOd2:e2" depart="23" />
    <vehicle id="6" type="typeITSCV" route="b4:b3TOb3:b4" depart="25" />
    <vehicle id="7" type="typeITSCV" route="c0:c1TOd3:d4" depart="27" />
    <vehicle id="8" type="typeITSCV" route="d0:d1TOb3:b4" depart="31" />
    <vehicle id="9" type="typeITSCV" route="d0:d1TOd3:d4" depart="32" />
    <vehicle id="10" type="typeITSCV" route="b4:b3TOd3:e3" depart="33" />
    <vehicle id="11" type="typeITSCV" route="e1:d1TOd3:e3" depart="35" />
    <vehicle id="12" type="typeITSCV" route="d0:d1TOd3:d4" depart="45" />
    <vehicle id="13" type="typeITSCV" route="e1:d1TOb1:b0" depart="46" />
    <vehicle id="14" type="typeITSCV" route="d0:d1TOb1:a1" depart="52" />
    <vehicle id="15" type="typeITSCV" route="d4:d3TOb1:b0" depart="52" />
    <vehicle id="16" type="typeITSCV" route="a2:b2TOb1:b0" depart="53" />
    <vehicle id="17" type="typeITSCV" route="a2:b2TOd3:e3" depart="53" />
    <vehicle id="18" type="typeITSCV" route="c0:c1TOb3:a3" depart="57" />
    <vehicle id="19" type="typeITSCV" route="d4:d3TOb3:a3" depart="64" />
    <vehicle id="20" type="typeITSCV" route="b0:b1TOd3:d4" depart="65" />
    <vehicle id="21" type="typeITSCV" route="c4:c3TOb2:a2" depart="69" />
    <vehicle id="22" type="typeITSCV" route="e2:d2TOd3:d4" depart="71" />
    <vehicle id="23" type="typeITSCV" route="b0:b1TOb2:a2" depart="72" />
    <vehicle id="24" type="typeITSCV" route="b4:b3TOd3:d4" depart="73" />
    <vehicle id="25" type="typeITSCV" route="c4:c3TOb2:a2" depart="74" />
    <vehicle id="26" type="typeITSCV" route="e2:d2TOb1:b0" depart="78" />
    <vehicle id="27" type="typeITSCV" route="e1:d1TOc1:c0" depart="79" />
    <vehicle id="28" type="typeITSCV" route="d0:d1TOd1:e1" depart="93" />
    <vehicle id="29" type="typeITSCV" route="b4:b3TOb1:b0" depart="95" />
    <vehicle id="30" type="typeITSCV" route="b0:b1TOd3:e3" depart="97" />
    <vehicle id="31" type="typeITSCV" route="d4:d3TOb3:b4" depart="98" />
    <vehicle id="32" type="typeITSCV" route="d4:d3TOb1:b0" depart="99" />
    <vehicle id="33" type="typeITSCV" route="d4:d3TOc1:c0" depart="99" />
    <vehicle id="34" type="typeITSCV" route="c0:c1TOd1:d0" depart="100" />
    <vehicle id="35" type="typeITSCV" route="e2:d2TOc3:c4" depart="102" />
    <vehicle id="36" type="typeITSCV" route="d4:d3TOd2:e2" depart="103" />
    <vehicle id="37" type="typeITSCV" route="e2:d2TOb2:a2" depart="105" />
    <vehicle id="38" type="typeITSCV" route="e2:d2TOb3:a3" depart="108" />
    <vehicle id="39" type="typeITSCV" route="c4:c3TOd1:d0" depart="111" />
    <vehicle id="40" type="typeITSCV" route="e1:d1TOc3:c4" depart="121" />
    <vehicle id="41" type="typeITSCV" route="b0:b1TOd3:e3" depart="126" />
    <vehicle id="42" type="typeITSCV" route="b0:b1TOd2:e2" depart="129" />
    <vehicle id="43" type="typeITSCV" route="d0:d1TOd2:e2" depart="130" />
    <vehicle id="44" type="typeITSCV" route="e3:d3TOb1:a1" depart="131" />
    <vehicle id="45" type="typeITSCV" route="a2:b2TOc1:c0" depart="137" />
    <vehicle id="46" type="typeITSCV" route="b4:b3TOb1:b0" depart="139" />
    <vehicle id="47" type="typeITSCV" route="e2:d2TOd1:d0" depart="145" />
    <vehicle id="48" type="typeITSCV" route="e3:d3TOb1:a1" depart="145" />
    <vehicle id="49" type="typeITSCV" route="a1:b1TOc1:c0" depart="146" />
    <vehicle id="50" type="typeITSCV" route="a3:b3TOb3:b4" depart="148" />
    <vehicle id="51" type="typeITSCV" route="c4:c3TOd2:e2" depart="151" />
    <vehicle id="52" type="typeITSCV" route="d0:d1TOb3:b4" depart="152" />
    <vehicle id="53" type="typeITSCV" route="a1:b1TOd1:d0" depart="155" />
    <vehicle id="54" type="typeITSCV" route="d0:d1TOd1:d0" depart="158" />
    <vehicle id="55" type="typeITSCV" route="a3:b3TOb2:a2" depart="166" />
    <vehicle id="56" type="typeITSCV" route="c4:c3TOb2:a2" depart="166" />
    <vehicle id="57" type="typeITSCV" route="d4:d3TOd1:e1" depart="168" />
    <vehicle id="58" type="typeITSCV" route="d0:d1TOb3:b4" depart="177" />
    <vehicle id="59" type="typeITSCV" route="c4:c3TOc1:c0" depart="179" />
    <vehicle id="60" type="typeITSCV" route="b0:b1TOd1:e1" depart="183" />
    <vehicle id="61" type="typeITSCV" route="a3:b3TOd3:d4" depart="184" />
    <vehicle id="62" type="typeITSCV" route="a3:b3TOb1:b0" depart="185" />
    <vehicle id="63" type="typeITSCV" route="b4:b3TOd3:d4" depart="186" />
    <vehicle id="64" type="typeITSCV" route="d4:d3TOc3:c4" depart="188" />
    <vehicle id="65" type="typeITSCV" route="d0:d1TOb3:b4" depart="190" />
    <vehicle id="66" type="typeITSCV" route="e2:d2TOd3:e3" depart="191" />
    <vehicle id="67" type="typeITSCV" route="e3:d3TOb1:a1" depart="193" />
    <vehicle id="68" type="typeITSCV" route="e3:d3TOb3:b4" depart="194" />
    <vehicle id="69" type="typeITSCV" route="e3:d3TOd3:d4" depart="194" />
    <vehicle id="70" type="typeITSCV" route="a1:b1TOc1:c0" depart="195" />
    <vehicle id="71" type="typeITSCV" route="a1:b1TOb1:a1" depart="197" />
    <vehicle id="72" type="typeITSCV" route="a3:b3TOd3:e3" depart="200" />
    <vehicle id="73" type="typeITSCV" route="e2:d2TOb3:a3" depart="200" />
    <vehicle id="74" type="typeITSCV" route="a2:b2TOb1:b0" depart="201" />
    <vehicle id="75" type="typeITSCV" route="e2:d2TOd1:d0" depart="202" />
    <vehicle id="76" type="typeITSCV" route="e3:d3TOb3:b4" depart="203" />
    <vehicle id="77" type="typeITSCV" route="d0:d1TOc3:c4" depart="206" />
    <vehicle id="78" type="typeITSCV" route="c4:c3TOc3:c4" depart="206" />
    <vehicle id="79" type="typeITSCV" route="c4:c3TOd3:e3" depart="206" />
    <vehicle id="80" type="typeITSCV" route="b4:b3TOd1:e1" depart="211" />
    <vehicle id="81" type="typeITSCV" route="a3:b3TOd3:e3" depart="212" />
    <vehicle id="82" type="typeITSCV" route="b4:b3TOb3:a3" depart="213" />
    <vehicle id="83" type="typeITSCV" route="a2:b2TOb3:b4" depart="216" />
    <vehicle id="84" type="typeITSCV" route="a2:b2TOb3:a3" depart="224" />
    <vehicle id="85" type="typeITSCV" route="e2:d2TOb3:b4" depart="224" />
    <vehicle id="86" type="typeITSCV" route="a3:b3TOb3:a3" depart="225" />
    <vehicle id="87" type="typeITSCV" route="c0:c1TOd3:d4" depart="227" />
    <vehicle id="88" type="typeITSCV" route="c4:c3TOb3:a3" depart="229" />
    <vehicle id="89" type="typeITSCV" route="b4:b3TOc3:c4" depart="230" />
    <vehicle id="90" type="typeITSCV" route="a2:b2TOc3:c4" depart="232" />
    <vehicle id="91" type="typeITSCV" route="d0:d1TOb2:a2" depart="234" />
    <vehicle id="92" type="typeITSCV" route="c0:c1TOd2:e2" depart="237" />
    <vehicle id="93" type="typeITSCV" route="c0:c1TOd1:e1" depart="240" />
    <vehicle id="94" type="typeITSCV" route="b0:b1TOd3:d4" depart="241" />
    <vehicle id="95" type="typeITSCV" route="d0:d1TOd1:d0" depart="249" />
    <vehicle id="96" type="typeITSCV" route="e2:d2TOd2:e2" depart="250" />
    <vehicle id="97" type="typeITSCV" route="a1:b1TOd3:d4" depart="251" />
    <vehicle id="98" type="typeITSCV" route="b0:b1TOc1:c0" depart="252" />
    <vehicle id="99" type="typeITSCV" route="e1:d1TOc1:c0" depart="254" />
    <vehicle id="100" type="typeITSCV" route="b0:b1TOb3:a3" depart="258" />
    <vehicle id="101" type="typeITSCV" route="b4:b3TOb3:a3" depart="259" />
    <vehicle id="102" type="typeITSCV" route="d0:d1TOc3:c4" depart="263" />
    <vehicle id="103" type="typeITSCV" route="a1:b1TOd1:d0" depart="264" />
    <vehicle id="104" type="typeITSCV" route="b0:b1TOb3:b4" depart="267" />
    <vehicle id="105" type="typeITSCV" route="e3:d3TOd3:d4" depart="268" />
    <vehicle id="106" type="typeITSCV" route="d0:d1TOd2:e2" depart="272" />
    <vehicle id="107" type="typeITSCV" route="c4:c3TOc3:c4" depart="278" />
    <vehicle id="108" type="typeITSCV" route="c4:c3TOd3:d4" depart="283" />
    <vehicle id="109" type="typeITSCV" route="e2:d2TOc3:c4" depart="283" />
    <vehicle id="110" type="typeITSCV" route="a2:b2TOb1:b0" depart="284" />
    <vehicle id="111" type="typeITSCV" route="c0:c1TOb3:b4" depart="289" />
    <vehicle id="112" type="typeITSCV" route="c0:c1TOc1:c0" depart="292" />
    <vehicle id="113" type="typeITSCV" route="b0:b1TOd1:d0" depart="294" />
    <vehicle id="114" type="typeITSCV" route="c4:c3TOc3:c4" depart="301" />
    <vehicle id="115" type="typeITSCV" route="c4:c3TOb1:b0" depart="307" />
    <vehicle id="116" type="typeITSCV" route="a2:b2TOb3:a3" depart="310" />
    <vehicle id="117" type="typeITSCV" route="a3:b3TOb2:a2" depart="310" />
    <vehicle id="118" type="typeITSCV" route="c4:c3TOb2:a2" depart="314" />
    <vehicle id="119" type="typeITSCV" route="d4:d3TOb3:b4" depart="315" />
    <vehicle id="120" type="typeITSCV" route="e1:d1TOb1:b0" depart="315" />
    <vehicle id="121" type="typeITSCV" route="c0:c1TOd1:e1" depart="317" />
    <vehicle id="122" type="typeITSCV" route="a2:b2TOd1:e1" depart="328" />
    <vehicle id="123" type="typeITSCV" route="a3:b3TOb2:a2" depart="329" />
    <vehicle id="124" type="typeITSCV" route="a1:b1TOb2:a2" depart="334" />
    <vehicle id="125" type="typeITSCV" route="d4:d3TOc1:c0" depart="343" />
    <vehicle id="126" type="typeITSCV" route="a2:b2TOb2:a2" depart="351" />
    <vehicle id="127" type="typeITSCV" route="d4:d3TOc3:c4" depart="352" />
    <vehicle id="128" type="typeITSCV" route="a2:b2TOb1:a1" depart="353" />
    <vehicle id="129" type="typeITSCV" route="e3:d3TOb1:b0" depart="355" />
    <vehicle id="130" type="typeITSCV" route="a1:b1TOd3:d4" depart="357" />
    <vehicle id="131" type="typeITSCV" route="d4:d3TOd3:e3" depart="358" />
    <vehicle id="132" type="typeITSCV" route="a1:b1TOd2:e2" depart="359" />
    <vehicle id="133" type="typeITSCV" route="d4:d3TOd1:d0" depart="368" />
    <vehicle id="134" type="typeITSCV" route="a3:b3TOc1:c0" depart="369" />
    <vehicle id="135" type="typeITSCV" route="a3:b3TOd3:d4" depart="372" />
    <vehicle id="136" type="typeITSCV" route="d0:d1TOd3:e3" depart="375" />
    <vehicle id="137" type="typeITSCV" route="b4:b3TOb3:a3" depart="380" />
    <vehicle id="138" type="typeITSCV" route="b0:b1TOd2:e2" depart="388" />
    <vehicle id="139" type="typeITSCV" route="d0:d1TOd3:e3" depart="389" />
    <vehicle id="140" type="typeITSCV" route="c0:c1TOb1:b0" depart="390" />
    <vehicle id="141" type="typeITSCV" route="e3:d3TOc3:c4" depart="392" />
    <vehicle id="142" type="typeITSCV" route="a3:b3TOb2:a2" depart="395" />
    <vehicle id="143" type="typeITSCV" route="a3:b3TOd2:e2" depart="399" />
    <vehicle id="144" type="typeITSCV" route="e3:d3TOb3:a3" depart="399" />
    <vehicle id="145" type="typeITSCV" route="d4:d3TOd1:e1" depart="401" />
    <vehicle id="146" type="typeITSCV" route="e1:d1TOb1:a1" depart="402" />
    <vehicle id="147" type="typeITSCV" route="a2:b2TOd3:e3" depart="409" />
    <vehicle id="148" type="typeITSCV" route="e2:d2TOd3:d4" depart="410" />
    <vehicle id="149" type="typeITSCV" route="b0:b1TOd3:e3" depart="412" />
    <vehicle id="150" type="typeITSCV" route="e2:d2TOb3:b4" depart="418" />
    <vehicle id="151" type="typeITSCV" route="a1:b1TOb1:b0" depart="420" />
    <vehicle id="152" type="typeITSCV" route="b0:b1TOb3:a3" depart="422" />
    <vehicle id="153" type="typeITSCV" route="c4:c3TOb2:a2" depart="424" />
    <vehicle id="154" type="typeITSCV" route="a2:b2TOd3:d4" depart="425" />
    <vehicle id="155" type="typeITSCV" route="b0:b1TOd3:e3" depart="426" />
    <vehicle id="156" type="typeITSCV" route="b0:b1TOb2:a2" depart="431" />
    <vehicle id="157" type="typeITSCV" route="e1:d1TOd1:e1" depart="433" />
    <vehicle id="158" type="typeITSCV" route="a1:b1TOb1:a1" depart="437" />
    <vehicle id="159" type="typeITSCV" route="b0:b1TOd1:e1" depart="439" />
    <vehicle id="160" type="typeITSCV" route="d4:d3TOd1:e1" depart="440" />
    <vehicle id="161" type="typeITSCV" route="a1:b1TOb1:b0" depart="441" />
    <vehicle id="162" type="typeITSCV" route="d0:d1TOd3:e3" depart="441" />
    <vehicle id="163" type="typeITSCV" route="a3:b3TOd3:d4" depart="442" />
    <vehicle id="164" type="typeITSCV" route="b4:b3TOb2:a2" depart="444" />
    <vehicle id="165" type="typeITSCV" route="a3:b3TOc3:c4" depart="446" />
    <vehicle id="166" type="typeITSCV" route="c4:c3TOb1:b0" depart="449" />
    <vehicle id="167" type="typeITSCV" route="e2:d2TOb1:b0" depart="452" />
    <vehicle id="168" type="typeITSCV" route="b0:b1TOd1:e1" depart="456" />
    <vehicle id="169" type="typeITSCV" route="e3:d3TOd2:e2" depart="456" />
    <vehicle id="170" type="typeITSCV" route="b4:b3TOc1:c0" depart="458" />
    <vehicle id="171" type="typeITSCV" route="a3:b3TOd1:d0" depart="459" />
    <vehicle id="172" type="typeITSCV" route="a3:b3TOd1:e1" depart="462" />
    <vehicle id="173" type="typeITSCV" route="c4:c3TOd1:e1" depart="467" />
    <vehicle id="174" type="typeITSCV" route="b0:b1TOd3:d4" depart="470" />
    <vehicle id="175" type="typeITSCV" route="e2:d2TOb3:a3" depart="473" />
    <vehicle id="176" type="typeITSCV" route="b0:b1TOb1:b0" depart="475" />
    <vehicle id="177" type="typeITSCV" route="d0:d1TOb2:a2" depart="475" />
    <vehicle id="178" type="typeITSCV" route="c0:c1TOb2:a2" depart="477" />
    <vehicle id="179" type="typeITSCV" route="d4:d3TOb1:b0" depart="477" />
    <vehicle id="180" type="typeITSCV" route="c4:c3TOd2:e2" depart="480" />
    <vehicle id="181" type="typeITSCV" route="c0:c1TOd1:e1" depart="487" />
    <vehicle id="182" type="typeITSCV" route="b0:b1TOd2:e2" depart="489" />
    <vehicle id="183" type="typeITSCV" route="c0:c1TOd3:e3" depart="490" />
    <vehicle id="184" type="typeITSCV" route="d4:d3TOb3:b4" depart="491" />
    <vehicle id="185" type="typeITSCV" route="d0:d1TOb2:a2" depart="493" />
    <vehicle id="186" type="typeITSCV" route="b4:b3TOd2:e2" depart="494" />
    <vehicle id="187" type="typeITSCV" route="e2:d2TOb1:b0" depart="501" />
    <vehicle id="188" type="typeITSCV" route="e3:d3TOd1:e1" depart="502" />
    <vehicle id="189" type="typeITSCV" route="d4:d3TOb2:a2" depart="507" />
    <vehicle id="190" type="typeITSCV" route="a2:b2TOd3:e3" depart="508" />
    <vehicle id="191" type="typeITSCV" route="c0:c1TOd3:e3" depart="510" />
    <vehicle id="192" type="typeITSCV" route="b4:b3TOc1:c0" depart="510" />
    <vehicle id="193" type="typeITSCV" route="a3:b3TOb1:b0" depart="511" />
    <vehicle id="194" type="typeITSCV" route="e3:d3TOc3:c4" depart="515" />
    <vehicle id="195" type="typeITSCV" route="c0:c1TOb1:a1" depart="516" />
    <vehicle id="196" type="typeITSCV" route="a1:b1TOd3:e3" depart="517" />
    <vehicle id="197" type="typeITSCV" route="d4:d3TOb1:a1" depart="517" />
    <vehicle id="198" type="typeITSCV" route="a2:b2TOd1:d0" depart="524" />
    <vehicle id="199" type="typeITSCV" route="a1:b1TOd3:d4" depart="527" />
    <vehicle id="200" type="typeITSCV" route="d4:d3TOc1:c0" depart="534" />
    <vehicle id="201" type="typeITSCV" route="d4:d3TOd3:d4" depart="534" />
    <vehicle id="202" type="typeITSCV" route="a1:b1TOd1:e1" depart="536" />
    <vehicle id="203" type="typeITSCV" route="a3:b3TOd2:e2" depart="536" />
    <vehicle id="204" type="typeITSCV" route="b0:b1TOb1:a1" depart="537" />
    <vehicle id="205" type="typeITSCV" route="b4:b3TOb3:b4" depart="537" />
    <vehicle id="206" type="typeITSCV" route="b0:b1TOb1:a1" depart="538" />
    <vehicle id="207" type="typeITSCV" route="e2:d2TOb3:a3" depart="538" />
    <vehicle id="208" type="typeITSCV" route="d4:d3TOd1:d0" depart="543" />
    <vehicle id="209" type="typeITSCV" route="e1:d1TOd2:e2" depart="543" />
    <vehicle id="210" type="typeITSCV" route="d0:d1TOb1:b0" depart="547" />
    <vehicle id="211" type="typeITSCV" route="b4:b3TOb1:b0" depart="551" />
    <vehicle id="212" type="typeITSCV" route="a1:b1TOc3:c4" depart="554" />
    <vehicle id="213" type="typeITSCV" route="b0:b1TOc3:c4" depart="557" />
    <vehicle id="214" type="typeITSCV" route="e1:d1TOc1:c0" depart="559" />
    <vehicle id="215" type="typeITSCV" route="b0:b1TOc1:c0" depart="565" />
    <vehicle id="216" type="typeITSCV" route="d4:d3TOb3:a3" depart="565" />
    <vehicle id="217" type="typeITSCV" route="e2:d2TOb2:a2" depart="570" />
    <vehicle id="218" type="typeITSCV" route="e3:d3TOb3:a3" depart="570" />
    <vehicle id="219" type="typeITSCV" route="d0:d1TOb1:a1" depart="573" />
    <vehicle id="220" type="typeITSCV" route="e1:d1TOd3:e3" depart="574" />
    <vehicle id="221" type="typeITSCV" route="c4:c3TOd3:e3" depart="575" />
    <vehicle id="222" type="typeITSCV" route="a1:b1TOb1:b0" depart="577" />
    <vehicle id="223" type="typeITSCV" route="e1:d1TOd1:e1" depart="577" />
    <vehicle id="224" type="typeITSCV" route="b0:b1TOc1:c0" depart="579" />
    <vehicle id="225" type="typeITSCV" route="a2:b2TOb3:a3" depart="581" />
    <vehicle id="226" type="typeITSCV" route="a3:b3TOb1:b0" depart="581" />
    <vehicle id="227" type="typeITSCV" route="a3:b3TOd3:e3" depart="581" />
    <vehicle id="228" type="typeITSCV" route="d0:d1TOd2:e2" depart="583" />
    <vehicle id="229" type="typeITSCV" route="c4:c3TOb3:b4" depart="583" />
    <vehicle id="230" type="typeITSCV" route="a2:b2TOd3:e3" depart="585" />
    <vehicle id="231" type="typeITSCV" route="a1:b1TOb3:b4" depart="587" />
    <vehicle id="232" type="typeITSCV" route="e3:d3TOb1:a1" depart="588" />
    <vehicle id="233" type="typeITSCV" route="d0:d1TOb3:a3" depart="589" />
    <vehicle id="234" type="typeITSCV" route="a2:b2TOb1:a1" depart="592" />
    <vehicle id="235" type="typeITSCV" route="c4:c3TOb1:b0" depart="592" />
    <vehicle id="236" type="typeITSCV" route="a3:b3TOd1:d0" depart="599" />
    <vehicle id="237" type="typeITSCV" route="e3:d3TOb3:b4" depart="601" />
    <vehicle id="238" type="typeITSCV" route="e1:d1TOb2:a2" depart="602" />
    <vehicle id="239" type="typeITSCV" route="b0:b1TOb3:a3" depart="603" />
    <vehicle id="240" type="typeITSCV" route="e2:d2TOb3:a3" depart="604" />
    <vehicle id="241" type="typeITSCV" route="a2:b2TOc3:c4" depart="609" />
    <vehicle id="242" type="typeITSCV" route="a2:b2TOd3:d4" depart="611" />
    <vehicle id="243" type="typeITSCV" route="e2:d2TOb2:a2" depart="611" />
    <vehicle id="244" type="typeITSCV" route="c4:c3TOb1:a1" depart="616" />
    <vehicle id="245" type="typeITSCV" route="e1:d1TOb1:a1" depart="617" />
    <vehicle id="246" type="typeITSCV" route="b0:b1TOd3:d4" depart="618" />
    <vehicle id="247" type="typeITSCV" route="e3:d3TOb1:b0" depart="622" />
    <vehicle id="248" type="typeITSCV" route="e1:d1TOb3:a3" depart="624" />
    <vehicle id="249" type="typeITSCV" route="a1:b1TOb3:b4" depart="628" />
    <vehicle id="250" type="typeITSCV" route="a1:b1TOd1:e1" depart="628" />
    <vehicle id="251" type="typeITSCV" route="e1:d1TOb3:a3" depart="629" />
    <vehicle id="252" type="typeITSCV" route="e3:d3TOd1:e1" depart="630" />
    <vehicle id="253" type="typeITSCV" route="c4:c3TOb1:a1" depart="634" />
    <vehicle id="254" type="typeITSCV" route="d0:d1TOb3:a3" depart="635" />
    <vehicle id="255" type="typeITSCV" route="b4:b3TOc1:c0" depart="640" />
    <vehicle id="256" type="typeITSCV" route="b0:b1TOd2:e2" depart="641" />
    <vehicle id="257" type="typeITSCV" route="b4:b3TOb3:b4" depart="643" />
    <vehicle id="258" type="typeITSCV" route="a1:b1TOd3:d4" depart="646" />
    <vehicle id="259" type="typeITSCV" route="e3:d3TOb1:b0" depart="649" />
    <vehicle id="260" type="typeITSCV" route="b0:b1TOd1:e1" depart="650" />
    <vehicle id="261" type="typeITSCV" route="a3:b3TOd1:e1" depart="660" />
    <vehicle id="262" type="typeITSCV" route="e2:d2TOd1:d0" depart="662" />
    <vehicle id="263" type="typeITSCV" route="a1:b1TOd1:d0" depart="663" />
    <vehicle id="264" type="typeITSCV" route="b0:b1TOb1:b0" depart="663" />
    <vehicle id="265" type="typeITSCV" route="d0:d1TOb1:b0" depart="666" />
    <vehicle id="266" type="typeITSCV" route="b4:b3TOd1:d0" depart="666" />
    <vehicle id="267" type="typeITSCV" route="b4:b3TOb1:b0" depart="669" />
    <vehicle id="268" type="typeITSCV" route="a2:b2TOd2:e2" depart="672" />