<routes>
    <vType id="typeHuman" accel="0.8" decel="4.5" sigma="0.5" length="5" minGap="2.5" maxSpeed="25" guiShape="passenger" color="1,1,0">
    </vType>

    <vType id="typeITSCV" accel="0.8" decel="4.5" sigma="0.5" length="5" minGap="2.5" maxSpeed="25" guiShape="passenger" color="1,0,0">
        <carFollowing-Krauss tau="1.0"/>
    </vType>

    <route edges="a1:b1 b1:c1 c1:c2 c2:b2 b2:b1 b1:a1" id="a1:b1TOb1:a1"/>
    <route edges="a1:b1 b1:b2 b2:a2" id="a1:b1TOb2:a2"/>
    <route edges="a1:b1 b1:b2 b2:b3 b3:a3" id="a1:b1TOb3:a3"/>
    <route edges="a1:b1 b1:b0" id="a1:b1TOb1:b0"/>
    <route edges="a1:b1 b1:c1 c1:c0" id="a1:b1TOc1:c0"/>
    <route edges="a1:b1 b1:c1 c1:d1 d1:d0" id="a1:b1TOd1:d0"/>
    <route edges="a1:b1 b1:b2 b2:b3 b3:b4" id="a1:b1TOb3:b4"/>
    <route edges="a1:b1 b1:b2 b2:b3 b3:c3 c3:c4" id="a1:b1TOc3:c4"/>
    <route edges="a1:b1 b1:b2 b2:b3 b3:c3 c3:d3 d3:d4" id="a1:b1TOd3:d4"/>
    <route edges="a1:b1 b1:c1 c1:d1 d1:e1" id="a1:b1TOd1:e1"/>
    <route edges="a1:b1 b1:b2 b2:c2 c2:d2 d2:e2" id="a1:b1TOd2:e2"/>
    <route edges="a1:b1 b1:b2 b2:b3 b3:c3 c3:d3 d3:e3" id="a1:b1TOd3:e3"/>
    <route edges="a2:b2 b2:b1 b1:a1" id="a2:b2TOb1:a1"/>
    <route edges="a2:b2 b2:c2 c2:c1 c1:b1 b1:b2 b2:a2" id="a2:b2TOb2:a2"/>
    <route edges="a2:b2 b2:b3 b3:a3" id="a2:b2TOb3:a3"/>
    <route edges="a2:b2 b2:b1 b1:b0" id="a2:b2TOb1:b0"/>
    <route edges="a2:b2 b2:b1 b1:c1 c1:c0" id="a2:b2TOc1:c0"/>
    <route edges="a2:b2 b2:b1 b1:c1 c1:d1 d1:d0" id="a2:b2TOd1:d0"/>
    <route edges="a2:b2 b2:b3 b3:b4" id="a2:b2TOb3:b4"/>
    <route edges="a2:b2 b2:b3 b3:c3 c3:c4" id="a2:b2TOc3:c4"/>
    <route edges="a2:b2 b2:b3 b3:c3 c3:d3 d3:d4" id="a2:b2TOd3:d4"/>
    <route edges="a2:b2 b2:b1 b1:c1 c1:d1 d1:e1" id="a2:b2TOd1:e1"/>
    <route edges="a2:b2 b2:c2 c2:d2 d2:e2" id="a2:b2TOd2:e2"/>
    <route edges="a2:b2 b2:b3 b3:c3 c3:d3 d3:e3" id="a2:b2TOd3:e3"/>
    <route edges="a3:b3 b3:b2 b2:b1 b1:a1" id="a3:b3TOb1:a1"/>
    <route edges="a3:b3 b3:b2 b2:a2" id="a3:b3TOb2:a2"/>
    <route edges="a3:b3 b3:c3 c3:c2 c2:b2 b2:b3 b3:a3" id="a3:b3TOb3:a3"/>
    <route edges="a3:b3 b3:b2 b2:b1 b1:b0" id="a3:b3TOb1:b0"/>
    <route edges="a3:b3 b3:b2 b2:b1 b1:c1 c1:c0" id="a3:b3TOc1:c0"/>
    <route edges="a3:b3 b3:b2 b2:b1 b1:c1 c1:d1 d1:d0" id="a3:b3TOd1:d0"/>
    <route edges="a3:b3 b3:b4" id="a3:b3TOb3:b4"/>
    <route edges="a3:b3 b3:c3 c3:c4" id="a3:b3TOc3:c4"/>
    <route edges="a3:b3 b3:c3 c3:d3 d3:d4" id="a3:b3TOd3:d4"/>
    <route edges="a3:b3 b3:b2 b2:b1 b1:c1 c1:d1 d1:e1" id="a3:b3TOd1:e1"/>
    <route edges="a3:b3 b3:b2 b2:c2 c2:d2 d2:e2" id="a3:b3TOd2:e2"/>
    <route edges="a3:b3 b3:c3 c3:d3 d3:e3" id="a3:b3TOd3:e3"/>
    <route edges="b0:b1 b1:a1" id="b0:b1TOb1:a1"/>
    <route edges="b0:b1 b1:b2 b2:a2" id="b0:b1TOb2:a2"/>
    <route edges="b0:b1 b1:b2 b2:b3 b3:a3" id="b0:b1TOb3:a3"/>
    <route edges="b0:b1 b1:c1 c1:c2 c2:b2 b2:b1 b1:b0" id="b0:b1TOb1:b0"/>
    <route edges="b0:b1 b1:c1 c1:c0" id="b0:b1TOc1:c0"/>
    <route edges="b0:b1 b1:c1 c1:d1 d1:d0" id="b0:b1TOd1:d0"/>
    <route edges="b0:b1 b1:b2 b2:b3 b3:b4" id="b0:b1TOb3:b4"/>
    <route edges="b0:b1 b1:b2 b2:b3 b3:c3 c3:c4" id="b0:b1TOc3:c4"/>
    <route edges="b0:b1 b1:b2 b2:b3 b3:c3 c3:d3 d3:d4" id="b0:b1TOd3:d4"/>
    <route edges="b0:b1 b1:c1 c1:d1 d1:e1" id="b0:b1TOd1:e1"/>
    <route edges="b0:b1 b1:b2 b2:c2 c2:d2 d2:e2" id="b0:b1TOd2:e2"/>
    <route edges="b0:b1 b1:b2 b2:b3 b3:c3 c3:d3 d3:e3" id="b0:b1TOd3:e3"/>
    <route edges="c0:c1 c1:b1 b1:a1" id="c0:c1TOb1:a1"/>
    <route edges="c0:c1 c1:b1 b1:b2 b2:a2" id="c0:c1TOb2:a2"/>
    <route edges="c0:c1 c1:b1 b1:b2 b2:b3 b3:a3" id="c0:c1TOb3:a3"/>
    <route edges="c0:c1 c1:b1 b1:b0" id="c0:c1TOb1:b0"/>
    <route edges="c0:c1 c1:c2 c2:b2 b2:b1 b1:c1 c1:c0" id="c0:c1TOc1:c0"/>
    <route edges="c0:c1 c1:d1 d1:d0" id="c0:c1TOd1:d0"/>
    <route edges="c0:c1 c1:b1 b1:b2 b2:b3 b3:b4" id="c0:c1TOb3:b4"/>
    <route edges="c0:c1 c1:c2 c2:c3 c3:c4" id="c0:c1TOc3:c4"/>
    <route edges="c0:c1 c1:c2 c2:c3 c3:d3 d3:d4" id="c0:c1TOd3:d4"/>
    <route edges="c0:c1 c1:d1 d1:e1" id="c0:c1TOd1:e1"/>
    <route edges="c0:c1 c1:c2 c2:d2 d2:e2" id="c0:c1TOd2:e2"/>
    <route edges="c0:c1 c1:c2 c2:c3 c3:d3 d3:e3" id="c0:c1TOd3:e3"/>
    <route edges="d0:d1 d1:c1 c1:b1 b1:a1" id="d0:d1TOb1:a1"/>
    <route edges="d0:d1 d1:c1 c1:b1 b1:b2 b2:a2" id="d0:d1TOb2:a2"/>
    <route edges="d0:d1 d1:c1 c1:b1 b1:b2 b2:b3 b3:a3" id="d0:d1TOb3:a3"/>
    <route edges="d0:d1 d1:c1 c1:b1 b1:b0" id="d0:d1TOb1:b0"/>
    <route edges="d0:d1 d1:c1 c1:c0" id="d0:d1TOc1:c0"/>
    <route edges="d0:d1 d1:d2 d2:c2 c2:c1 c1:d1 d1:d0" id="d0:d1TOd1:d0"/>
    <route edges="d0:d1 d1:c1 c1:b1 b1:b2 b2:b3 b3:b4" id="d0:d1TOb3:b4"/>
    <route edges="d0:d1 d1:c1 c1:c2 c2:c3 c3:c4" id="d0:d1TOc3:c4"/>
    <route edges="d0:d1 d1:d2 d2:d3 d3:d4" id="d0:d1TOd3:d4"/>
    <route edges="d0:d1 d1:e1" id="d0:d1TOd1:e1"/>
    <route edges="d0:d1 d1:d2 d2:e2" id="d0:d1TOd2:e2"/>
    <route edges="d0:d1 d1:d2 d2:d3 d3:e3" id="d0:d1TOd3:e3"/>
    <route edges="b4:b3 b3:b2 b2:b1 b1:a1" id="b4:b3TOb1:a1"/>
    <route edges="b4:b3 b3:b2 b2:a2" id="b4:b3TOb2:a2"/>
    <route edges="b4:b3 b3:a3" id="b4:b3TOb3:a3"/>
    <route edges="b4:b3 b3:b2 b2:b1 b1:b0" id="b4:b3TOb1:b0"/>
    <route edges="b4:b3 b3:b2 b2:b1 b1:c1 c1:c0" id="b4:b3TOc1:c0"/>
    <route edges="b4:b3 b3:b2 b2:b1 b1:c1 c1:d1 d1:d0" id="b4:b3TOd1:d0"/>
    <route edges="b4:b3 b3:c3 c3:c2 c2:b2 b2:b3 b3:b4" id="b4:b3TOb3:b4"/>
    <route edges="b4:b3 b3:c3 c3:c4" id="b4:b3TOc3:c4"/>
    <route edges="b4:b3 b3:c3 c3:d3 d3:d4" id="b4:b3TOd3:d4"/>
    <route edges="b4:b3 b3:b2 b2:b1 b1:c1 c1:d1 d1:e1" id="b4:b3TOd1:e1"/>
    <route edges="b4:b3 b3:b2 b2:c2 c2:d2 d2:e2" id="b4:b3TOd2:e2"/>
    <route edges="b4:b3 b3:c3 c3:d3 d3:e3" id="b4:b3TOd3:e3"/>
    <route edges="c4:c3 c3:b3 b3:b2 b2:b1 b1:a1" id="c4:c3TOb1:a1"/>
    <route edges="c4:c3 c3:b3 b3:b2 b2:a2" id="c4:c3TOb2:a2"/>
    <route edges="c4:c3 c3:b3 b3:a3" id="c4:c3TOb3:a3"/>
    <route edges="c4:c3 c3:b3 b3:b2 b2:b1 b1:b0" id="c4:c3TOb1:b0"/>
    <route edges="c4:c3 c3:c2 c2:c1 c1:c0" id="c4:c3TOc1:c0"/>
    <route edges="c4:c3 c3:c2 c2:c1 c1:d1 d1:d0" id="c4:c3TOd1:d0"/>
    <route edges="c4:c3 c3:b3 b3:b4" id="c4:c3TOb3:b4"/>
    <route edges="c4:c3 c3:c2 c2:b2 b2:b3 b3:c3 c3:c4" id="c4:c3TOc3:c4"/>
    <route edges="c4:c3 c3:d3 d3:d4" id="c4:c3TOd3:d4"/>
    <route edges="c4:c3 c3:c2 c2:c1 c1:d1 d1:e1" id="c4:c3TOd1:e1"/>
    <route edges="c4:c3 c3:c2 c2:d2 d2:e2" id="c4:c3TOd2:e2"/>
    <route edges="c4:c3 c3:d3 d3:e3" id="c4:c3TOd3:e3"/>
    <route edges="d4:d3 d3:c3 c3:b3 b3:b2 b2:b1 b1:a1" id="d4:d3TOb1:a1"/>
    <route edges="d4:d3 d3:c3 c3:b3 b3:b2 b2:a2" id="d4:d3TOb2:a2"/>
    <route edges="d4:d3 d3:c3 c3:b3 b3:a3" id="d4:d3TOb3:a3"/>
    <route edges="d4:d3 d3:c3 c3:b3 b3:b2 b2:b1 b1:b0" id="d4:d3TOb1:b0"/>
    <route edges="d4:d3 d3:c3 c3:c2 c2:c1 c1:c0" id="d4:d3TOc1:c0"/>
    <route edges="d4:d3 d3:d2 d2:d1 d1:d0" id="d4:d3TOd1:d0"/>
    <route edges="d4:d3 d3:c3 c3:b3 b3:b4" id="d4:d3TOb3:b4"/>
    <route edges="d4:d3 d3:c3 c3:c4" id="d4:d3TOc3:c4"/>
    <route edges="d4:d3 d3:d2 d2:c2 c2:c3 c3:d3 d3:d4" id="d4:d3TOd3:d4"/>
    <route edges="d4:d3 d3:d2 d2:d1 d1:e1" id="d4:d3TOd1:e1"/>
    <route edges="d4:d3 d3:d2 d2:e2" id="d4:d3TOd2:e2"/>
    <route edges="d4:d3 d3:e3" id="d4:d3TOd3:e3"/>
    <route edges="e1:d1 d1:c1 c1:b1 b1:a1" id="e1:d1TOb1:a1"/>
    <route edges="e1:d1 d1:c1 c1:b1 b1:b2 b2:a2" id="e1:d1TOb2:a2"/>
    <route edges="e1:d1 d1:c1 c1:b1 b1:b2 b2:b3 b3:a3" id="e1:d1TOb3:a3"/>
    <route edges="e1:d1 d1:c1 c1:b1 b1:b0" id="e1:d1TOb1:b0"/>
    <route edges="e1:d1 d1:c1 c1:c0" id="e1:d1TOc1:c0"/>
    <route edges="e1:d1 d1:d0" id="e1:d1TOd1:d0"/>
    <route edges="e1:d1 d1:c1 c1:b1 b1:b2 b2:b3 b3:b4" id="e1:d1TOb3:b4"/>
    <route edges="e1:d1 d1:c1 c1:c2 c2:c3 c3:c4" id="e1:d1TOc3:c4"/>
    <route edges="e1:d1 d1:d2 d2:d3 d3:d4" id="e1:d1TOd3:d4"/>
    <route edges="e1:d1 d1:d2 d2:c2 c2:c1 c1:d1 d1:e1" id="e1:d1TOd1:e1"/>
    <route edges="e1:d1 d1:d2 d2:e2" id="e1:d1TOd2:e2"/>
    <route edges="e1:d1 d1:d2 d2:d3 d3:e3" id="e1:d1TOd3:e3"/>
    <route edges="e2:d2 d2:c2 c2:b2 b2:b1 b1:a1" id="e2:d2TOb1:a1"/>
    <route edges="e2:d2 d2:c2 c2:b2 b2:a2" id="e2:d2TOb2:a2"/>
    <route edges="e2:d2 d2:c2 c2:b2 b2:b3 b3:a3" id="e2:d2TOb3:a3"/>
    <route edges="e2:d2 d2:c2 c2:b2 b2:b1 b1:b0" id="e2:d2TOb1:b0"/>
    <route edges="e2:d2 d2:c2 c2:c1 c1:c0" id="e2:d2TOc1:c0"/>
    <route edges="e2:d2 d2:d1 d1:d0" id="e2:d2TOd1:d0"/>
    <route edges="e2:d2 d2:c2 c2:b2 b2:b3 b3:b4" id="e2:d2TOb3:b4"/>
    <route edges="e2:d2 d2:c2 c2:c3 c3:c4" id="e2:d2TOc3:c4"/>
    <route edges="e2:d2 d2:d3 d3:d4" id="e2:d2TOd3:d4"/>
    <route edges="e2:d2 d2:d1 d1:e1" id="e2:d2TOd1:e1"/>
    <route edges="e2:d2 d2:d1 d1:c1 c1:c2 c2:d2 d2:e2" id="e2:d2TOd2:e2"/>
    <route edges="e2:d2 d2:d3 d3:e3" id="e2:d2TOd3:e3"/>
    <route edges="e3:d3 d3:c3 c3:b3 b3:b2 b2:b1 b1:a1" id="e3:d3TOb1:a1"/>
    <route edges="e3:d3 d3:c3 c3:b3 b3:b2 b2:a2" id="e3:d3TOb2:a2"/>
    <route edges="e3:d3 d3:c3 c3:b3 b3:a3" id="e3:d3TOb3:a3"/>
    <route edges="e3:d3 d3:c3 c3:b3 b3:b2 b2:b1 b1:b0" id="e3:d3TOb1:b0"/>
    <route edges="e3:d3 d3:c3 c3:c2 c2:c1 c1:c0" id="e3:d3TOc1:c0"/>
    <route edges="e3:d3 d3:d2 d2:d1 d1:d0" id="e3:d3TOd1:d0"/>
    <route edges="e3:d3 d3:c3 c3:b3 b3:b4" id="e3:d3TOb3:b4"/>
    <route edges="e3:d3 d3:c3 c3:c4" id="e3:d3TOc3:c4"/>
    <route edges="e3:d3 d3:d4" id="e3:d3TOd3:d4"/>
    <route edges="e3:d3 d3:d2 d2:d1 d1:e1" id="e3:d3TOd1:e1"/>
    <route edges="e3:d3 d3:d2 d2:e2" id="e3:d3TOd2:e2"/>
    <route edges="e3:d3 d3:d2 d2:c2 c2:c3 c3:d3 d3:e3" id="e3:d3TOd3:e3"/>
    
    <vehicle id="0" type="typeHuman" route="d4:d3TOb3:b4" depart="0" />
    <vehicle id="1" type="typeHuman" route="a2:b2TOb3:b4" depart="6" />
    <vehicle id="2" type="typeITSCV" route="d4:d3TOd1:e1" depart="7" />
    <vehicle id="3" type="typeHuman" route="e3:d3TOc3:c4" depart="8" />
    <vehicle id="4" type="typeITSCV" route="c0:c1TOb1:a1" depart="12" />
    <vehicle id="5" type="typeHuman" route="d0:d1TOd3:d4" depart="13" />
    <vehicle id="6" type="typeHuman" route="d0:d1TOb2:a2" depart="19" />
    <vehicle id="7" type="typeHuman" route="c4:c3TOc1:c0" depart="21" />
    <vehicle id="8" type="typeHuman" route="a2:b2TOc1:c0" depart="23" />
    <vehicle id="9" type="typeHuman" route="d4:d3TOd3:e3" depart="23" />
    <vehicle id="10" type="typeITSCV" route="a3:b3TOc1:c0" depart="28" />
    <vehicle id="11" type="typeHuman" route="e2:d2TOd1:e1" depart="40" />
    <vehicle id="12" type="typeHuman" route="c0:c1TOb3:b4" depart="41" />
    <vehicle id="13" type="typeHuman" route="b4:b3TOb1:b0" depart="41" />
    <vehicle id="14" type="typeHuman" route="e1:d1TOb1:a1" depart="41" />
    <vehicle id="15" type="typeHuman" route="d0:d1TOd1:e1" depart="42" />
    <vehicle id="16" type="typeHuman" route="d4:d3TOb1:b0" depart="42" />
    <vehicle id="17" type="typeHuman" route="e3:d3TOc3:c4" depart="47" />
    <vehicle id="18" type="typeHuman" route="b0:b1TOb3:b4" depart="48" />
    <vehicle id="19" type="typeITSCV" route="a2:b2TOd3:d4" depart="49" />
    <vehicle id="20" type="typeHuman" route="a1:b1TOb3:a3" depart="55" />
    <vehicle id="21" type="typeHuman" route="a1:b1TOd1:e1" depart="56" />
    <vehicle id="22" type="typeHuman" route="e2:d2TOd3:d4" depart="56" />
    <vehicle id="23" type="typeHuman" route="b4:b3TOd1:e1" depart="57" />
    <vehicle id="24" type="typeHuman" route="e2:d2TOc1:c0" depart="63" />
    <vehicle id="25" type="typeHuman" route="e2:d2TOd1:e1" depart="64" />
    <vehicle id="26" type="typeITSCV" route="a1:b1TOb3:b4" depart="68" />
    <vehicle id="27" type="typeHuman" route="b4:b3TOb1:a1" depart="69" />
    <vehicle id="28" type="typeHuman" route="c4:c3TOb1:a1" depart="70" />
    <vehicle id="29" type="typeHuman" route="e1:d1TOd1:d0" depart="71" />
    <vehicle id="30" type="typeITSCV" route="a1:b1TOd2:e2" depart="78" />
    <vehicle id="31" type="typeITSCV" route="b4:b3TOb2:a2" depart="80" />
    <vehicle id="32" type="typeHuman" route="b4:b3TOb3:a3" depart="88" />
    <vehicle id="33" type="typeHuman" route="d0:d1TOb1:a1" depart="93" />
    <vehicle id="34" type="typeHuman" route="a2:b2TOb1:a1" depart="94" />
    <vehicle id="35" type="typeITSCV" route="e1:d1TOd1:e1" depart="95" />
    <vehicle id="36" type="typeHuman" route="d0:d1TOd2:e2" depart="99" />
    <vehicle id="37" type="typeHuman" route="b4:b3TOd1:d0" depart="101" />
    <vehicle id="38" type="typeHuman" route="a1:b1TOc1:c0" depart="102" />
    <vehicle id="39" type="typeHuman" route="e1:d1TOc3:c4" depart="108" />
    <vehicle id="40" type="typeITSCV" route="e1:d1TOb2:a2" depart="111" />
    <vehicle id="41" type="typeHuman" route="b4:b3TOd3:d4" depart="112" />
    <vehicle id="42" type="typeHuman" route="b4:b3TOb1:a1" depart="113" />
    <vehicle id="43" type="typeHuman" route="c4:c3TOc3:c4" depart="114" />
    <vehicle id="44" type="typeHuman" route="d4:d3TOb3:b4" depart="115" />
    <vehicle id="45" type="typeITSCV" route="a2:b2TOd1:d0" depart="119" />
    <vehicle id="46" type="typeHuman" route="a2:b2TOd3:e3" depart="121" />
    <vehicle id="47" type="typeHuman" route="e1:d1TOc3:c4" depart="121" />
    <vehicle id="48" type="typeHuman" route="e1:d1TOb3:b4" depart="126" />
    <vehicle id="49" type="typeHuman" route="a3:b3TOc3:c4" depart="128" />
    <vehicle id="50" type="typeHuman" route="a3:b3TOc1:c0" depart="129" />
    <vehicle id="51" type="typeHuman" route="d4:d3TOb1:a1" depart="130" />
    <vehicle id="52" type="typeHuman" route="a3:b3TOc3:c4" depart="133" />
    <vehicle id="53" type="typeHuman" route="b4:b3TOb2:a2" depart="133" />
    <vehicle id="54" type="typeHuman" route="b0:b1TOd3:d4" depart="137" />
    <vehicle id="55" type="typeHuman" route="a3:b3TOb1:b0" depart="138" />
    <vehicle id="56" type="typeHuman" route="e1:d1TOd1:d0" depart="150" />
    <vehicle id="57" type="typeHuman" route="c0:c1TOd1:d0" depart="153" />
    <vehicle id="58" type="typeHuman" route="c0:c1TOb3:b4" depart="155" />
    <vehicle id="59" type="typeITSCV" route="c4:c3TOb1:b0" depart="155" />
    <vehicle id="60" type="typeHuman" route="e2:d2TOb2:a2" depart="155" />
    <vehicle id="61" type="typeHuman" route="c0:c1TOd3:d4" depart="156" />
    <vehicle id="62" type="typeITSCV" route="e2:d2TOd3:d4" depart="159" />
    <vehicle id="63" type="typeHuman" route="e1:d1TOb1:b0" depart="163" />
    <vehicle id="64" type="typeHuman" route="b4:b3TOd1:d0" depart="164" />
    <vehicle id="65" type="typeHuman" route="e1:d1TOd1:d0" depart="164" />
    <vehicle id="66" type="typeHuman" route="c4:c3TOd3:e3" depart="170" />
    <vehicle id="67" type="typeHuman" route="e2:d2TOd1:d0" depart="171" />
    <vehicle id="68" type="typeHuman" route="d0:d1TOb2:a2" depart="172" />
    <vehicle id="69" type="typeHuman" route="a1:b1TOd1:d0" depart="180" />
    <vehicle id="70" type="typeHuman" route="e1:d1TOc3:c4" depart="183" />
    <vehicle id="71" type="typeHuman" route="b0:b1TOc1:c0" depart="185" />
    <vehicle id="72" type="typeHuman" route="b0:b1TOb1:a1" depart="187" />
    <vehicle id="73" type="typeITSCV" route="e1:d1TOc1:c0" depart="187" />
    <vehicle id="74" type="typeHuman" route="a3:b3TOd3:e3" depart="189" />
    <vehicle id="75" type="typeHuman" route="e1:d1TOb3:a3" depart="191" />
    <vehicle id="76" type="typeHuman" route="b0:b1TOd3:e3" depart="193" />
    <vehicle id="77" type="typeHuman" route="e3:d3TOb3:b4" depart="193" />
    <vehicle id="78" type="typeHuman" route="b4:b3TOb1:b0" depart="197" />
    <vehicle id="79" type="typeHuman" route="e3:d3TOd3:e3" depart="198" />
    <vehicle id="80" type="typeHuman" route="e1:d1TOb2:a2" depart="202" />
    <vehicle id="81" type="typeHuman" route="e2:d2TOb3:a3" depart="202" />
    <vehicle id="82" type="typeITSCV" route="a2:b2TOc3:c4" depart="206" />
    <vehicle id="83" type="typeHuman" route="a3:b3TOd1:e1" depart="209" />
    <vehicle id="84" type="typeHuman" route="e1:d1TOd3:d4" depart="210" />
    <vehicle id="85" type="typeHuman" route="a1:b1TOb1:b0" depart="212" />
    <vehicle id="86" type="typeHuman" route="a2:b2TOb3:b4" depart="212" />
    <vehicle id="87" type="typeHuman" route="b0:b1TOb1:a1" depart="214" />
    <vehicle id="88" type="typeHuman" route="d0:d1TOc1:c0" depart="217" />
    <vehicle id="89" type="typeHuman" route="b0:b1TOb3:a3" depart="221" />
    <vehicle id="90" type="typeHuman" route="a3:b3TOb3:b4" depart="226" />
    <vehicle id="91" type="typeHuman" route="e1:d1TOd3:d4" depart="230" />
    <vehicle id="92" type="typeITSCV" route="d4:d3TOc1:c0" depart="236" />
    <vehicle id="93" type="typeHuman" route="a1:b1TOb2:a2" depart="240" />
    <vehicle id="94" type="typeHuman" route="b4:b3TOb2:a2" depart="241" />
    <vehicle id="95" type="typeHuman" route="c0:c1TOb2:a2" depart="243" />
    <vehicle id="96" type="typeHuman" route="e1:d1TOb1:a1" depart="243" />
    <vehicle id="97" type="typeHuman" route="a1:b1TOd1:e1" depart="245" />
    <vehicle id="98" type="typeHuman" route="e1:d1TOd1:d0" depart="245" />
    <vehicle id="99" type="typeHuman" route="a1:b1TOb2:a2" depart="246" />
    <vehicle id="100" type="typeHuman" route="a3:b3TOb1:a1" depart="247" />
    <vehicle id="101" type="typeHuman" route="a1:b1TOd3:d4" depart="250" />
    <vehicle id="102" type="typeHuman" route="d0:d1TOb2:a2" depart="250" />
    <vehicle id="103" type="typeHuman" route="a2:b2TOb1:b0" depart="252" />
    <vehicle id="104" type="typeHuman" route="d0:d1TOc3:c4" depart="258" />
    <vehicle id="105" type="typeHuman" route="c0:c1TOc3:c4" depart="263" />
    <vehicle id="106" type="typeHuman" route="e1:d1TOd3:e3" depart="267" />
    <vehicle id="107" type="typeHuman" route="e3:d3TOc1:c0" depart="269" />
    <vehicle id="108" type="typeHuman" route="b0:b1TOb3:a3" depart="270" />
    <vehicle id="109" type="typeHuman" route="e1:d1TOc1:c0" depart="270" />
    <vehicle id="110" type="typeHuman" route="e2:d2TOd3:e3" depart="270" />
    <vehicle id="111" type="typeHuman" route="a1:b1TOc1:c0" depart="279" />
    <vehicle id="112" type="typeITSCV" route="e1:d1TOb1:a1" depart="279" />
    <vehicle id="113" type="typeHuman" route="d4:d3TOd3:d4" depart="280" />
    <vehicle id="114" type="typeITSCV" route="e1:d1TOb1:a1" depart="283" />
    <vehicle id="115" type="typeHuman" route="b0:b1TOc1:c0" depart="295" />
    <vehicle id="116" type="typeHuman" route="e3:d3TOc3:c4" depart="295" />
    <vehicle id="117" type="typeHuman" route="e1:d1TOb2:a2" depart="297" />
    <vehicle id="118" type="typeHuman" route="c0:c1TOd3:d4" depart="298" />
    <vehicle id="119" type="typeHuman" route="c0:c1TOd3:e3" depart="299" />
    <vehicle id="120" type="typeHuman" route="e1:d1TOb1:b0" depart="301" />
    <vehicle id="121" type="typeITSCV" route="e1:d1TOb3:b4" depart="301" />
    <vehicle id="122" type="typeHuman" route="a3:b3TOb1:a1" depart="302" />
    <vehicle id="123" type="typeHuman" route="e1:d1TOd3:d4" depart="302" />
    <vehicle id="124" type="typeITSCV" route="d0:d1TOb2:a2" depart="304" />
    <vehicle id="125" type="typeHuman" route="e3:d3TOb3:b4" depart="306" />
    <vehicle id="126" type="typeHuman" route="a2:b2TOc3:c4" depart="308" />
    <vehicle id="127" type="typeHuman" route="b0:b1TOd2:e2" depart="314" />
    <vehicle id="128" type="typeHuman" route="b4:b3TOd3:d4" depart="317" />
    <vehicle id="129" type="typeHuman" route="e3:d3TOd3:d4" depart="317" />
    <vehicle id="130" type="typeHuman" route="b0:b1TOc1:c0" depart="319" />
    <vehicle id="131" type="typeHuman" route="a3:b3TOb1:a1" depart="321" />
    <vehicle id="132" type="typeHuman" route="d0:d1TOb3:a3" depart="322" />
    <vehicle id="133" type="typeHuman" route="b4:b3TOd3:e3" depart="323" />
    <vehicle id="134" type="typeITSCV" route="b4:b3TOd3:d4" depart="324" />
    <vehicle id="135" type="typeHuman" route="d4:d3TOd3:e3" depart="324" />
    <vehicle id="136" type="typeHuman" route="a3:b3TOc3:c4" depart="327" />
    <vehicle id="137" type="typeHuman" route="a1:b1TOb3:b4" depart="330" />
    <vehicle id="138" type="typeHuman" route="a1:b1TOd1:e1" depart="330" />
    <vehicle id="139" type="typeHuman" route="a2:b2TOd3:d4" depart="330" />
    <vehicle id="140" type="typeHuman" route="a1:b1TOb3:b4" depart="332" />
    <vehicle id="141" type="typeHuman" route="e3:d3TOc3:c4" depart="333" />
    <vehicle id="142" type="typeHuman" route="e2:d2TOb2:a2" depart="334" />
    <vehicle id="143" type="typeHuman" route="d4:d3TOd1:e1" depart="337" />
    <vehicle id="144" type="typeITSCV" route="e2:d2TOb1:a1" depart="338" />
    <vehicle id="145" type="typeHuman" route="a2:b2TOb2:a2" depart="339" />
    <vehicle id="146" type="typeHuman" route="a1:b1TOb1:a1" depart="340" />
    <vehicle id="147" type="typeHuman" route="e2:d2TOb3:b4" depart="340" />
    <vehicle id="148" type="typeITSCV" route="b0:b1TOb3:a3" depart="342" />
    <vehicle id="149" type="typeITSCV" route="a3:b3TOd3:e3" depart="346" />
    <vehicle id="150" type="typeHuman" route="c4:c3TOd2:e2" depart="346" />
    <vehicle id="151" type="typeITSCV" route="c4:c3TOb3:b4" depart="348" />
    <vehicle id="152" type="typeITSCV" route="e1:d1TOb3:a3" depart="350" />
    <vehicle id="153" type="typeHuman" route="a3:b3TOc3:c4" depart="351" />
    <vehicle id="154" type="typeHuman" route="a1:b1TOd3:d4" depart="352" />
    <vehicle id="155" type="typeHuman" route="c0:c1TOd1:d0" depart="352" />
    <vehicle id="156" type="typeHuman" route="e1:d1TOd3:e3" depart="353" />
    <vehicle id="157" type="typeHuman" route="b0:b1TOd3:e3" depart="357" />
    <vehicle id="158" type="typeHuman" route="c4:c3TOb2:a2" depart="357" />
    <vehicle id="159" type="typeHuman" route="e1:d1TOb1:a1" depart="357" />
    <vehicle id="160" type="typeHuman" route="c4:c3TOd2:e2" depart="361" />
    <vehicle id="161" type="typeHuman" route="e3:d3TOd3:d4" depart="362" />
    <vehicle id="162" type="typeHuman" route="a1:b1TOb3:b4" depart="365" />
    <vehicle id="163" type="typeHuman" route="b4:b3TOb1:a1" depart="366" />
    <vehicle id="164" type="typeHuman" route="b0:b1TOb1:b0" depart="367" />
    <vehicle id="165" type="typeHuman" route="a3:b3TOd2:e2" depart="368" />
    <vehicle id="166" type="typeHuman" route="c0:c1TOc1:c0" depart="372" />
    <vehicle id="167" type="typeHuman" route="e1:d1TOb1:b0" depart="373" />
    <vehicle id="168" type="typeHuman" route="c4:c3TOd1:d0" depart="374" />
    <vehicle id="169" type="typeHuman" route="e3:d3TOd2:e2" depart="378" />
    <vehicle id="170" type="typeHuman" route="a3:b3TOd3:d4" depart="381" />
    <vehicle id="171" type="typeITSCV" route="a3:b3TOb1:a1" depart="384" />
    <vehicle id="172" type="typeHuman" route="a3:b3TOd1:d0" depart="391" />
    <vehicle id="173" type="typeHuman" route="e2:d2TOb3:b4" depart="392" />
    <vehicle id="174" type="typeHuman" route="e2:d2TOd3:d4" depart="394" />
    <vehicle id="175" type="typeHuman" route="a3:b3TOd3:e3" depart="396" />
    <vehicle id="176" type="typeHuman" route="b0:b1TOc3:c4" depart="400" />
    <vehicle id="177" type="typeHuman" route="c0:c1TOd3:d4" depart="401" />
    <vehicle id="178" type="typeHuman" route="b0:b1TOd3:d4" depart="403" />
    <vehicle id="179" type="typeHuman" route="c0:c1TOb3:a3" depart="403" />
    <vehicle id="180" type="typeHuman" route="d4:d3TOb2:a2" depart="405" />
    <vehicle id="181" type="typeHuman" route="c4:c3TOc1:c0" depart="407" />
    <vehicle id="182" type="typeHuman" route="c4:c3TOd3:e3" depart="408" />
    <vehicle id="183" type="typeITSCV" route="e3:d3TOc3:c4" depart="409" />
    <vehicle id="184" type="typeHuman" route="a3:b3TOd3:d4" depart="411" />
    <vehicle id="185" type="typeHuman" route="b4:b3TOd3:d4" depart="413" />
    <vehicle id="186" type="typeHuman" route="c4:c3TOb1:a1" depart="414" />
    <vehicle id="187" type="typeHuman" route="b0:b1TOd3:d4" depart="418" />
    <vehicle id="188" type="typeHuman" route="b0:b1TOb1:b0" depart="420" />
    <vehicle id="189" type="typeHuman" route="e2:d2TOd1:e1" depart="426" />
    <vehicle id="190" type="typeHuman" route="e1:d1TOb1:b0" depart="430" />
    <vehicle id="191" type="typeHuman" route="a3:b3TOd2:e2" depart="438" />
    <vehicle id="192" type="typeHuman" route="d4:d3TOd1:d0" depart="443" />
    <vehicle id="193" type="typeHuman" route="e1:d1TOd2:e2" depart="445" />
    <vehicle id="194" type="typeHuman" route="d4:d3TOc3:c4" depart="446" />
    <vehicle id="195" type="typeHuman" route="a1:b1TOd3:d4" depart="452" />
    <vehicle id="196" type="typeITSCV" route="c0:c1TOd1:d0" depart="453" />
    <vehicle id="197" type="typeHuman" route="e2:d2TOc3:c4" depart="453" />
    <vehicle id="198" type="typeHuman" route="c4:c3TOd3:d4" depart="455" />
    <vehicle id="199" type="typeHuman" route="e3:d3TOd2:e2" depart="456" />
    <vehicle id="200" type="typeHuman" route="e3:d3TOb1:a1" depart="457" />
    <vehicle id="201" type="typeITSCV" route="c0:c1TOd1:d0" depart="458" />
    <vehicle id="202" type="typeHuman" route="c4:c3TOc3:c4" depart="458" />
    <vehicle id="203" type="typeHuman" route="a3:b3TOc1:c0" depart="459" />
    <vehicle id="204" type="typeHuman" route="b0:b1TOd1:e1" depart="461" />
    <vehicle id="205" type="typeHuman" route="a3:b3TOb1:a1" depart="462" />
    <vehicle id="206" type="typeHuman" route="a2:b2TOb3:a3" depart="466" />
    <vehicle id="207" type="typeHuman" route="a3:b3TOd3:e3" depart="468" />
    <vehicle id="208" type="typeHuman" route="a1:b1TOb2:a2" depart="469" />
    <vehicle id="209" type="typeHuman" route="c0:c1TOb1:a1" depart="473" />
    <vehicle id="210" type="typeHuman" route="c0:c1TOb2:a2" depart="473" />
    <vehicle id="211" type="typeHuman" route="b4:b3TOc1:c0" depart="473" />
    <vehicle id="212" type="typeHuman" route="b4:b3TOc3:c4" depart="475" />
    <vehicle id="213" type="typeHuman" route="c4:c3TOc3:c4" depart="475" />
    <vehicle id="214" type="typeHuman" route="b0:b1TOb1:b0" depart="479" />
    <vehicle id="215" type="typeHuman" route="a3:b3TOc3:c4" depart="482" />
    <vehicle id="216" type="typeHuman" route="b4:b3TOd3:d4" depart="482" />
    <vehicle id="217" type="typeHuman" route="e2:d2TOc3:c4" depart="482" />
    <vehicle id="218" type="typeHuman" route="a2:b2TOc3:c4" depart="485" />
    <vehicle id="219" type="typeHuman" route="a3:b3TOd3:e3" depart="485" />
    <vehicle id="220" type="typeHuman" route="b0:b1TOc3:c4" depart="486" />
    <vehicle id="221" type="typeHuman" route="b4:b3TOd1:d0" depart="486" />
    <vehicle id="222" type="typeHuman" route="b4:b3TOd3:d4" depart="486" />
    <vehicle id="223" type="typeHuman" route="e3:d3TOb1:a1" depart="487" />
    <vehicle id="224" type="typeHuman" route="b4:b3TOb2:a2" depart="489" />
    <vehicle id="225" type="typeHuman" route="b4:b3TOc3:c4" depart="490" />
    <vehicle id="226" type="typeHuman" route="b4:b3TOd2:e2" depart="490" />
    <vehicle id="227" type="typeHuman" route="e1:d1TOb3:a3" depart="492" />
    <vehicle id="228" type="typeHuman" route="c4:c3TOd1:d0" depart="496" />
    <vehicle id="229" type="typeHuman" route="a3:b3TOb3:b4" depart="497" />
    <vehicle id="230" type="typeHuman" route="b4:b3TOd2:e2" depart="498" />
    <vehicle id="231" type="typeHuman" route="c4:c3TOb1:a1" depart="501" />
    <vehicle id="232" type="typeHuman" route="a1:b1TOd3:e3" depart="502" />
    <vehicle id="233" type="typeHuman" route="e2:d2TOb1:a1" depart="502" />
    <vehicle id="234" type="typeHuman" route="a1:b1TOb3:a3" depart="505" />
    <vehicle id="235" type="typeHuman" route="a1:b1TOd3:d4" depart="506" />
    <vehicle id="236" type="typeHuman" route="e2:d2TOd3:e3" depart="506" />
    <vehicle id="237" type="typeHuman" route="a3:b3TOb1:a1" depart="507" />
    <vehicle id="238" type="typeHuman" route="d0:d1TOb1:b0" depart="513" />
    <vehicle id="239" type="typeHuman" route="e3:d3TOb3:a3" depart="513" />
    <vehicle id="240" type="typeHuman" route="b0:b1TOb2:a2" depart="515" />
    <vehicle id="241" type="typeHuman" route="a3:b3TOd3:d4" depart="516" />
    <vehicle id="242" type="typeITSCV" route="a1:b1TOd3:d4" depart="521" />
    <vehicle id="243" type="typeHuman" route="a1:b1TOb3:a3" depart="522" />
    <vehicle id="244" type="typeITSCV" route="a3:b3TOd1:e1" depart="522" />
    <vehicle id="245" type="typeHuman" route="e2:d2TOb3:a3" depart="524" />
    <vehicle id="246" type="typeHuman" route="a2:b2TOb1:a1" depart="526" />
    <vehicle id="247" type="typeHuman" route="c0:c1TOc1:c0" depart="532" />
    <vehicle id="248" type="typeHuman" route="e3:d3TOd3:e3" depart="532" />
    <vehicle id="249" type="typeHuman" route="d4:d3TOd2:e2" depart="534" />
    <vehicle id="250" type="typeHuman" route="e1:d1TOd1:d0" depart="534" />
    <vehicle id="251" type="typeHuman" route="c4:c3TOd3:e3" depart="537" />
    <vehicle id="252" type="typeHuman" route="a2:b2TOd1:d0" depart="545" />
    <vehicle id="253" type="typeHuman" route="d0:d1TOd3:d4" depart="546" />
    <vehicle id="254" type="typeHuman" route="e3:d3TOb1:a1" depart="556" />
    <vehicle id="255" type="typeHuman" route="e1:d1TOd1:d0" depart="558" />
    <vehicle id="256" type="typeHuman" route="a2:b2TOd3:d4" depart="562" />
    <vehicle id="257" type="typeHuman" route="a1:b1TOd1:e1" depart="563" />
    <vehicle id="258" type="typeHuman" route="d0:d1TOd1:d0" depart="564" />
    <vehicle id="259" type="typeHuman" route="e2:d2TOc3:c4" depart="569" />
    <vehicle id="260" type="typeHuman" route="e1:d1TOd2:e2" depart="570" />
    <vehicle id="261" type="typeHuman" route="c4:c3TOb3:a3" depart="577" />
    <vehicle id="262" type="typeHuman" route="e1:d1TOd1:e1" depart="581" />
    <vehicle id="263" type="typeHuman" route="c0:c1TOd3:e3" depart="583" />
    <vehicle id="264" type="typeHuman" route="a3:b3TOb1:b0" depart="587" />
    <vehicle id="265" type="typeHuman" route="a3:b3TOc1:c0" depart="587" />
    <vehicle id="266" type="typeHuman" route="d4:d3TOd3:d4" depart="587" />
    <vehicle id="267" type="typeHuman" route="d0:d1TOb3:a3" depart="588" />
    <vehicle id="268" type="typeHuman" route="e3:d3TOc1:c0" depart="588" />