<routes>
    <vType id="typeHuman" accel="0.8" decel="4.5" sigma="0.5" length="5" minGap="2.5" maxSpeed="25" guiShape="passenger" color="1,1,0">
    </vType>

    <vType id="typeITSCV" accel="0.8" decel="4.5" sigma="0.5" length="5" minGap="2.5" maxSpeed="25" guiShape="passenger" color="1,0,0">
        <carFollowing-Krauss tau="1.0"/>
    </vType>

    <route edges="a1:b1 b1:c1 c1:c2 c2:b2 b2:b1 b1:a1" id="a1:b1TOb1:a1"/>
    <route edges="a1:b1 b1:b2 b2:a2" id="a1:b1TOb2:a2"/>
    <route edges="a1:b1 b1:b2 b2:b3 b3:a3" id="a1:b1TOb3:a3"/>
    <route edges="a1:b1 b1:b0" id="a1:b1TOb1:b0"/>
    <route edges="a1:b1 b1:c1 c1:c0" id="a1:b1TOc1:c0"/>
    <route edges="a1:b1 b1:c1 c1:d1 d1:d0" id="a1:b1TOd1:d0"/>
    <route edges="a1:b1 b1:b2 b2:b3 b3:b4" id="a1:b1TOb3:b4"/>
    <route edges="a1:b1 b1:b2 b2:b3 b3:c3 c3:c4" id="a1:b1TOc3:c4"/>
    <route edges="a1:b1 b1:b2 b2:b3 b3:c3 c3:d3 d3:d4" id="a1:b1TOd3:d4"/>
    <route edges="a1:b1 b1:c1 c1:d1 d1:e1" id="a1:b1TOd1:e1"/>
    <route edges="a1:b1 b1:b2 b2:c2 c2:d2 d2:e2" id="a1:b1TOd2:e2"/>
    <route edges="a1:b1 b1:b2 b2:b3 b3:c3 c3:d3 d3:e3" id="a1:b1TOd3:e3"/>
    <route edges="a2:b2 b2:b1 b1:a1" id="a2:b2TOb1:a1"/>
    <route edges="a2:b2 b2:c2 c2:c1 c1:b1 b1:b2 b2:a2" id="a2:b2TOb2:a2"/>
    <route edges="a2:b2 b2:b3 b3:a3" id="a2:b2TOb3:a3"/>
    <route edges="a2:b2 b2:b1 b1:b0" id="a2:b2TOb1:b0"/>
    <route edges="a2:b2 b2:b1 b1:c1 c1:c0" id="a2:b2TOc1:c0"/>
    <route edges="a2:b2 b2:b1 b1:c1 c1:d1 d1:d0" id="a2:b2TOd1:d0"/>
    <route edges="a2:b2 b2:b3 b3:b4" id="a2:b2TOb3:b4"/>
    <route edges="a2:b2 b2:b3 b3:c3 c3:c4" id="a2:b2TOc3:c4"/>
    <route edges="a2:b2 b2:b3 b3:c3 c3:d3 d3:d4" id="a2:b2TOd3:d4"/>
    <route edges="a2:b2 b2:b1 b1:c1 c1:d1 d1:e1" id="a2:b2TOd1:e1"/>
    <route edges="a2:b2 b2:c2 c2:d2 d2:e2" id="a2:b2TOd2:e2"/>
    <route edges="a2:b2 b2:b3 b3:c3 c3:d3 d3:e3" id="a2:b2TOd3:e3"/>
    <route edges="a3:b3 b3:b2 b2:b1 b1:a1" id="a3:b3TOb1:a1"/>
    <route edges="a3:b3 b3:b2 b2:a2" id="a3:b3TOb2:a2"/>
    <route edges="a3:b3 b3:c3 c3:c2 c2:b2 b2:b3 b3:a3" id="a3:b3TOb3:a3"/>
    <route edges="a3:b3 b3:b2 b2:b1 b1:b0" id="a3:b3TOb1:b0"/>
    <route edges="a3:b3 b3:b2 b2:b1 b1:c1 c1:c0" id="a3:b3TOc1:c0"/>
    <route edges="a3:b3 b3:b2 b2:b1 b1:c1 c1:d1 d1:d0" id="a3:b3TOd1:d0"/>
    <route edges="a3:b3 b3:b4" id="a3:b3TOb3:b4"/>
    <route edges="a3:b3 b3:c3 c3:c4" id="a3:b3TOc3:c4"/>
    <route edges="a3:b3 b3:c3 c3:d3 d3:d4" id="a3:b3TOd3:d4"/>
    <route edges="a3:b3 b3:b2 b2:b1 b1:c1 c1:d1 d1:e1" id="a3:b3TOd1:e1"/>
    <route edges="a3:b3 b3:b2 b2:c2 c2:d2 d2:e2" id="a3:b3TOd2:e2"/>
    <route edges="a3:b3 b3:c3 c3:d3 d3:e3" id="a3:b3TOd3:e3"/>
    <route edges="b0:b1 b1:a1" id="b0:b1TOb1:a1"/>
    <route edges="b0:b1 b1:b2 b2:a2" id="b0:b1TOb2:a2"/>
    <route edges="b0:b1 b1:b2 b2:b3 b3:a3" id="b0:b1TOb3:a3"/>
    <route edges="b0:b1 b1:c1 c1:c2 c2:b2 b2:b1 b1:b0" id="b0:b1TOb1:b0"/>
    <route edges="b0:b1 b1:c1 c1:c0" id="b0:b1TOc1:c0"/>
    <route edges="b0:b1 b1:c1 c1:d1 d1:d0" id="b0:b1TOd1:d0"/>
    <route edges="b0:b1 b1:b2 b2:b3 b3:b4" id="b0:b1TOb3:b4"/>
    <route edges="b0:b1 b1:b2 b2:b3 b3:c3 c3:c4" id="b0:b1TOc3:c4"/>
    <route edges="b0:b1 b1:b2 b2:b3 b3:c3 c3:d3 d3:d4" id="b0:b1TOd3:d4"/>
    <route edges="b0:b1 b1:c1 c1:d1 d1:e1" id="b0:b1TOd1:e1"/>
    <route edges="b0:b1 b1:b2 b2:c2 c2:d2 d2:e2" id="b0:b1TOd2:e2"/>
    <route edges="b0:b1 b1:b2 b2:b3 b3:c3 c3:d3 d3:e3" id="b0:b1TOd3:e3"/>
    <route edges="c0:c1 c1:b1 b1:a1" id="c0:c1TOb1:a1"/>
    <route edges="c0:c1 c1:b1 b1:b2 b2:a2" id="c0:c1TOb2:a2"/>
    <route edges="c0:c1 c1:b1 b1:b2 b2:b3 b3:a3" id="c0:c1TOb3:a3"/>
    <route edges="c0:c1 c1:b1 b1:b0" id="c0:c1TOb1:b0"/>
    <route edges="c0:c1 c1:c2 c2:b2 b2:b1 b1:c1 c1:c0" id="c0:c1TOc1:c0"/>
    <route edges="c0:c1 c1:d1 d1:d0" id="c0:c1TOd1:d0"/>
    <route edges="c0:c1 c1:b1 b1:b2 b2:b3 b3:b4" id="c0:c1TOb3:b4"/>
    <route edges="c0:c1 c1:c2 c2:c3 c3:c4" id="c0:c1TOc3:c4"/>
    <route edges="c0:c1 c1:c2 c2:c3 c3:d3 d3:d4" id="c0:c1TOd3:d4"/>
    <route edges="c0:c1 c1:d1 d1:e1" id="c0:c1TOd1:e1"/>
    <route edges="c0:c1 c1:c2 c2:d2 d2:e2" id="c0:c1TOd2:e2"/>
    <route edges="c0:c1 c1:c2 c2:c3 c3:d3 d3:e3" id="c0:c1TOd3:e3"/>
    <route edges="d0:d1 d1:c1 c1:b1 b1:a1" id="d0:d1TOb1:a1"/>
    <route edges="d0:d1 d1:c1 c1:b1 b1:b2 b2:a2" id="d0:d1TOb2:a2"/>
    <route edges="d0:d1 d1:c1 c1:b1 b1:b2 b2:b3 b3:a3" id="d0:d1TOb3:a3"/>
    <route edges="d0:d1 d1:c1 c1:b1 b1:b0" id="d0:d1TOb1:b0"/>
    <route edges="d0:d1 d1:c1 c1:c0" id="d0:d1TOc1:c0"/>
    <route edges="d0:d1 d1:d2 d2:c2 c2:c1 c1:d1 d1:d0" id="d0:d1TOd1:d0"/>
    <route edges="d0:d1 d1:c1 c1:b1 b1:b2 b2:b3 b3:b4" id="d0:d1TOb3:b4"/>
    <route edges="d0:d1 d1:c1 c1:c2 c2:c3 c3:c4" id="d0:d1TOc3:c4"/>
    <route edges="d0:d1 d1:d2 d2:d3 d3:d4" id="d0:d1TOd3:d4"/>
    <route edges="d0:d1 d1:e1" id="d0:d1TOd1:e1"/>
    <route edges="d0:d1 d1:d2 d2:e2" id="d0:d1TOd2:e2"/>
    <route edges="d0:d1 d1:d2 d2:d3 d3:e3" id="d0:d1TOd3:e3"/>
    <route edges="b4:b3 b3:b2 b2:b1 b1:a1" id="b4:b3TOb1:a1"/>
    <route edges="b4:b3 b3:b2 b2:a2" id="b4:b3TOb2:a2"/>
    <route edges="b4:b3 b3:a3" id="b4:b3TOb3:a3"/>
    <route edges="b4:b3 b3:b2 b2:b1 b1:b0" id="b4:b3TOb1:b0"/>
    <route edges="b4:b3 b3:b2 b2:b1 b1:c1 c1:c0" id="b4:b3TOc1:c0"/>
    <route edges="b4:b3 b3:b2 b2:b1 b1:c1 c1:d1 d1:d0" id="b4:b3TOd1:d0"/>
    <route edges="b4:b3 b3:c3 c3:c2 c2:b2 b2:b3 b3:b4" id="b4:b3TOb3:b4"/>
    <route edges="b4:b3 b3:c3 c3:c4" id="b4:b3TOc3:c4"/>
    <route edges="b4:b3 b3:c3 c3:d3 d3:d4" id="b4:b3TOd3:d4"/>
    <route edges="b4:b3 b3:b2 b2:b1 b1:c1 c1:d1 d1:e1" id="b4:b3TOd1:e1"/>
    <route edges="b4:b3 b3:b2 b2:c2 c2:d2 d2:e2" id="b4:b3TOd2:e2"/>
    <route edges="b4:b3 b3:c3 c3:d3 d3:e3" id="b4:b3TOd3:e3"/>
    <route edges="c4:c3 c3:b3 b3:b2 b2:b1 b1:a1" id="c4:c3TOb1:a1"/>
    <route edges="c4:c3 c3:b3 b3:b2 b2:a2" id="c4:c3TOb2:a2"/>
    <route edges="c4:c3 c3:b3 b3:a3" id="c4:c3TOb3:a3"/>
    <route edges="c4:c3 c3:b3 b3:b2 b2:b1 b1:b0" id="c4:c3TOb1:b0"/>
    <route edges="c4:c3 c3:c2 c2:c1 c1:c0" id="c4:c3TOc1:c0"/>
    <route edges="c4:c3 c3:c2 c2:c1 c1:d1 d1:d0" id="c4:c3TOd1:d0"/>
    <route edges="c4:c3 c3:b3 b3:b4" id="c4:c3TOb3:b4"/>
    <route edges="c4:c3 c3:c2 c2:b2 b2:b3 b3:c3 c3:c4" id="c4:c3TOc3:c4"/>
    <route edges="c4:c3 c3:d3 d3:d4" id="c4:c3TOd3:d4"/>
    <route edges="c4:c3 c3:c2 c2:c1 c1:d1 d1:e1" id="c4:c3TOd1:e1"/>
    <route edges="c4:c3 c3:c2 c2:d2 d2:e2" id="c4:c3TOd2:e2"/>
    <route edges="c4:c3 c3:d3 d3:e3" id="c4:c3TOd3:e3"/>
    <route edges="d4:d3 d3:c3 c3:b3 b3:b2 b2:b1 b1:a1" id="d4:d3TOb1:a1"/>
    <route edges="d4:d3 d3:c3 c3:b3 b3:b2 b2:a2" id="d4:d3TOb2:a2"/>
    <route edges="d4:d3 d3:c3 c3:b3 b3:a3" id="d4:d3TOb3:a3"/>
    <route edges="d4:d3 d3:c3 c3:b3 b3:b2 b2:b1 b1:b0" id="d4:d3TOb1:b0"/>
    <route edges="d4:d3 d3:c3 c3:c2 c2:c1 c1:c0" id="d4:d3TOc1:c0"/>
    <route edges="d4:d3 d3:d2 d2:d1 d1:d0" id="d4:d3TOd1:d0"/>
    <route edges="d4:d3 d3:c3 c3:b3 b3:b4" id="d4:d3TOb3:b4"/>
    <route edges="d4:d3 d3:c3 c3:c4" id="d4:d3TOc3:c4"/>
    <route edges="d4:d3 d3:d2 d2:c2 c2:c3 c3:d3 d3:d4" id="d4:d3TOd3:d4"/>
    <route edges="d4:d3 d3:d2 d2:d1 d1:e1" id="d4:d3TOd1:e1"/>
    <route edges="d4:d3 d3:d2 d2:e2" id="d4:d3TOd2:e2"/>
    <route edges="d4:d3 d3:e3" id="d4:d3TOd3:e3"/>
    <route edges="e1:d1 d1:c1 c1:b1 b1:a1" id="e1:d1TOb1:a1"/>
    <route edges="e1:d1 d1:c1 c1:b1 b1:b2 b2:a2" id="e1:d1TOb2:a2"/>
    <route edges="e1:d1 d1:c1 c1:b1 b1:b2 b2:b3 b3:a3" id="e1:d1TOb3:a3"/>
    <route edges="e1:d1 d1:c1 c1:b1 b1:b0" id="e1:d1TOb1:b0"/>
    <route edges="e1:d1 d1:c1 c1:c0" id="e1:d1TOc1:c0"/>
    <route edges="e1:d1 d1:d0" id="e1:d1TOd1:d0"/>
    <route edges="e1:d1 d1:c1 c1:b1 b1:b2 b2:b3 b3:b4" id="e1:d1TOb3:b4"/>
    <route edges="e1:d1 d1:c1 c1:c2 c2:c3 c3:c4" id="e1:d1TOc3:c4"/>
    <route edges="e1:d1 d1:d2 d2:d3 d3:d4" id="e1:d1TOd3:d4"/>
    <route edges="e1:d1 d1:d2 d2:c2 c2:c1 c1:d1 d1:e1" id="e1:d1TOd1:e1"/>
    <route edges="e1:d1 d1:d2 d2:e2" id="e1:d1TOd2:e2"/>
    <route edges="e1:d1 d1:d2 d2:d3 d3:e3" id="e1:d1TOd3:e3"/>
    <route edges="e2:d2 d2:c2 c2:b2 b2:b1 b1:a1" id="e2:d2TOb1:a1"/>
    <route edges="e2:d2 d2:c2 c2:b2 b2:a2" id="e2:d2TOb2:a2"/>
    <route edges="e2:d2 d2:c2 c2:b2 b2:b3 b3:a3" id="e2:d2TOb3:a3"/>
    <route edges="e2:d2 d2:c2 c2:b2 b2:b1 b1:b0" id="e2:d2TOb1:b0"/>
    <route edges="e2:d2 d2:c2 c2:c1 c1:c0" id="e2:d2TOc1:c0"/>
    <route edges="e2:d2 d2:d1 d1:d0" id="e2:d2TOd1:d0"/>
    <route edges="e2:d2 d2:c2 c2:b2 b2:b3 b3:b4" id="e2:d2TOb3:b4"/>
    <route edges="e2:d2 d2:c2 c2:c3 c3:c4" id="e2:d2TOc3:c4"/>
    <route edges="e2:d2 d2:d3 d3:d4" id="e2:d2TOd3:d4"/>
    <route edges="e2:d2 d2:d1 d1:e1" id="e2:d2TOd1:e1"/>
    <route edges="e2:d2 d2:d1 d1:c1 c1:c2 c2:d2 d2:e2" id="e2:d2TOd2:e2"/>
    <route edges="e2:d2 d2:d3 d3:e3" id="e2:d2TOd3:e3"/>
    <route edges="e3:d3 d3:c3 c3:b3 b3:b2 b2:b1 b1:a1" id="e3:d3TOb1:a1"/>
    <route edges="e3:d3 d3:c3 c3:b3 b3:b2 b2:a2" id="e3:d3TOb2:a2"/>
    <route edges="e3:d3 d3:c3 c3:b3 b3:a3" id="e3:d3TOb3:a3"/>
    <route edges="e3:d3 d3:c3 c3:b3 b3:b2 b2:b1 b1:b0" id="e3:d3TOb1:b0"/>
    <route edges="e3:d3 d3:c3 c3:c2 c2:c1 c1:c0" id="e3:d3TOc1:c0"/>
    <route edges="e3:d3 d3:d2 d2:d1 d1:d0" id="e3:d3TOd1:d0"/>
    <route edges="e3:d3 d3:c3 c3:b3 b3:b4" id="e3:d3TOb3:b4"/>
    <route edges="e3:d3 d3:c3 c3:c4" id="e3:d3TOc3:c4"/>
    <route edges="e3:d3 d3:d4" id="e3:d3TOd3:d4"/>
    <route edges="e3:d3 d3:d2 d2:d1 d1:e1" id="e3:d3TOd1:e1"/>
    <route edges="e3:d3 d3:d2 d2:e2" id="e3:d3TOd2:e2"/>
    <route edges="e3:d3 d3:d2 d2:c2 c2:c3 c3:d3 d3:e3" id="e3:d3TOd3:e3"/>
    
    <vehicle id="0" type="typeITSCV" route="e2:d2TOc1:c0" depart="0" />
    <vehicle id="1" type="typeITSCV" route="a1:b1TOb2:a2" depart="2" />
    <vehicle id="2" type="typeITSCV" route="b4:b3TOb3:b4" depart="2" />
    <vehicle id="3" type="typeITSCV" route="d4:d3TOc3:c4" depart="2" />
    <vehicle id="4" type="typeITSCV" route="d4:d3TOd3:d4" depart="4" />
    <vehicle id="5" type="typeITSCV" route="a2:b2TOb2:a2" depart="7" />
    <vehicle id="6" type="typeITSCV" route="b4:b3TOd3:e3" depart="13" />
    <vehicle id="7" type="typeITSCV" route="d0:d1TOb2:a2" depart="17" />
    <vehicle id="8" type="typeITSCV" route="c4:c3TOb1:b0" depart="17" />
    <vehicle id="9" type="typeITSCV" route="d4:d3TOd2:e2" depart="17" />
    <vehicle id="10" type="typeITSCV" route="a1:b1TOd1:e1" depart="19" />
    <vehicle id="11" type="typeITSCV" route="a3:b3TOd1:e1" depart="20" />
    <vehicle id="12" type="typeITSCV" route="d4:d3TOb3:a3" depart="20" />
    <vehicle id="13" type="typeITSCV" route="e3:d3TOb1:a1" depart="22" />
    <vehicle id="14" type="typeITSCV" route="b4:b3TOd3:d4" depart="23" />
    <vehicle id="15" type="typeITSCV" route="b0:b1TOd2:e2" depart="24" />
    <vehicle id="16" type="typeITSCV" route="c4:c3TOb1:a1" depart="26" />
    <vehicle id="17" type="typeITSCV" route="c0:c1TOc1:c0" depart="28" />
    <vehicle id="18" type="typeITSCV" route="a2:b2TOb1:a1" depart="30" />
    <vehicle id="19" type="typeITSCV" route="a2:b2TOb3:a3" depart="31" />
    <vehicle id="20" type="typeITSCV" route="c4:c3TOd1:e1" depart="34" />
    <vehicle id="21" type="typeITSCV" route="b0:b1TOd1:d0" depart="35" />
    <vehicle id="22" type="typeITSCV" route="a2:b2TOd2:e2" depart="36" />
    <vehicle id="23" type="typeITSCV" route="a1:b1TOd1:d0" depart="38" />
    <vehicle id="24" type="typeITSCV" route="e2:d2TOd3:d4" depart="38" />
    <vehicle id="25" type="typeITSCV" route="c4:c3TOd2:e2" depart="40" />
    <vehicle id="26" type="typeITSCV" route="b0:b1TOb2:a2" depart="41" />
    <vehicle id="27" type="typeITSCV" route="c4:c3TOc3:c4" depart="49" />
    <vehicle id="28" type="typeITSCV" route="c4:c3TOd3:e3" depart="49" />
    <vehicle id="29" type="typeITSCV" route="e2:d2TOd2:e2" depart="49" />
    <vehicle id="30" type="typeITSCV" route="b0:b1TOd3:d4" depart="51" />
    <vehicle id="31" type="typeITSCV" route="c4:c3TOb3:a3" depart="53" />
    <vehicle id="32" type="typeITSCV" route="a3:b3TOb3:b4" depart="55" />
    <vehicle id="33" type="typeITSCV" route="b0:b1TOc3:c4" depart="56" />
    <vehicle id="34" type="typeITSCV" route="d0:d1TOb3:b4" depart="57" />
    <vehicle id="35" type="typeITSCV" route="a3:b3TOc1:c0" depart="60" />
    <vehicle id="36" type="typeITSCV" route="a2:b2TOb3:b4" depart="61" />
    <vehicle id="37" type="typeITSCV" route="c0:c1TOd3:d4" depart="61" />
    <vehicle id="38" type="typeITSCV" route="c0:c1TOc3:c4" depart="63" />
    <vehicle id="39" type="typeITSCV" route="a3:b3TOb1:a1" depart="67" />
    <vehicle id="40" type="typeITSCV" route="e2:d2TOb2:a2" depart="67" />
    <vehicle id="41" type="typeITSCV" route="b0:b1TOb2:a2" depart="72" />
    <vehicle id="42" type="typeITSCV" route="e3:d3TOc3:c4" depart="74" />
    <vehicle id="43" type="typeITSCV" route="e1:d1TOd3:e3" depart="75" />
    <vehicle id="44" type="typeITSCV" route="a3:b3TOb1:a1" depart="79" />
    <vehicle id="45" type="typeITSCV" route="b0:b1TOd3:d4" depart="82" />
    <vehicle id="46" type="typeITSCV" route="c4:c3TOd1:d0" depart="84" />
    <vehicle id="47" type="typeITSCV" route="d0:d1TOc1:c0" depart="85" />
    <vehicle id="48" type="typeITSCV" route="e3:d3TOc1:c0" depart="87" />
    <vehicle id="49" type="typeITSCV" route="d0:d1TOb1:a1" depart="90" />
    <vehicle id="50" type="typeITSCV" route="d0:d1TOc1:c0" depart="90" />
    <vehicle id="51" type="typeITSCV" route="c0:c1TOd3:e3" depart="91" />
    <vehicle id="52" type="typeITSCV" route="c0:c1TOc3:c4" depart="93" />
    <vehicle id="53" type="typeITSCV" route="d4:d3TOd3:d4" depart="94" />
    <vehicle id="54" type="typeITSCV" route="b4:b3TOc1:c0" depart="95" />
    <vehicle id="55" type="typeITSCV" route="a3:b3TOb1:a1" depart="96" />
    <vehicle id="56" type="typeITSCV" route="e3:d3TOc1:c0" depart="96" />
    <vehicle id="57" type="typeITSCV" route="c4:c3TOb1:b0" depart="97" />
    <vehicle id="58" type="typeITSCV" route="a1:b1TOb1:a1" depart="98" />
    <vehicle id="59" type="typeITSCV" route="b4:b3TOd2:e2" depart="99" />
    <vehicle id="60" type="typeITSCV" route="c4:c3TOb1:b0" depart="99" />
    <vehicle id="61" type="typeITSCV" route="a2:b2TOb1:a1" depart="100" />
    <vehicle id="62" type="typeITSCV" route="a3:b3TOd3:d4" depart="101" />
    <vehicle id="63" type="typeITSCV" route="b4:b3TOc1:c0" depart="101" />
    <vehicle id="64" type="typeITSCV" route="b4:b3TOc1:c0" depart="102" />
    <vehicle id="65" type="typeITSCV" route="e1:d1TOd2:e2" depart="103" />
    <vehicle id="66" type="typeITSCV" route="a2:b2TOd3:d4" depart="104" />
    <vehicle id="67" type="typeITSCV" route="b0:b1TOd3:e3" depart="105" />
    <vehicle id="68" type="typeITSCV" route="a1:b1TOb1:a1" depart="106" />
    <vehicle id="69" type="typeITSCV" route="e2:d2TOd1:e1" depart="108" />
    <vehicle id="70" type="typeITSCV" route="c4:c3TOc1:c0" depart="110" />
    <vehicle id="71" type="typeITSCV" route="c0:c1TOd1:e1" depart="117" />
    <vehicle id="72" type="typeITSCV" route="d4:d3TOd3:e3" depart="117" />
    <vehicle id="73" type="typeITSCV" route="a2:b2TOc1:c0" depart="118" />
    <vehicle id="74" type="typeITSCV" route="c4:c3TOd2:e2" depart="118" />
    <vehicle id="75" type="typeITSCV" route="d4:d3TOb3:a3" depart="121" />
    <vehicle id="76" type="typeITSCV" route="c4:c3TOd1:e1" depart="122" />
    <vehicle id="77" type="typeITSCV" route="a2:b2TOd3:d4" depart="123" />
    <vehicle id="78" type="typeITSCV" route="e1:d1TOb3:b4" depart="125" />
    <vehicle id="79" type="typeITSCV" route="c4:c3TOb3:a3" depart="126" />
    <vehicle id="80" type="typeITSCV" route="a1:b1TOb3:a3" depart="127" />
    <vehicle id="81" type="typeITSCV" route="a1:b1TOd1:e1" depart="127" />
    <vehicle id="82" type="typeITSCV" route="c0:c1TOc3:c4" depart="128" />
    <vehicle id="83" type="typeITSCV" route="d0:d1TOb2:a2" depart="131" />
    <vehicle id="84" type="typeITSCV" route="e1:d1TOd1:d0" depart="131" />
    <vehicle id="85" type="typeITSCV" route="e2:d2TOc3:c4" depart="133" />
    <vehicle id="86" type="typeITSCV" route="e3:d3TOb3:b4" depart="133" />
    <vehicle id="87" type="typeITSCV" route="e1:d1TOb3:b4" depart="135" />
    <vehicle id="88" type="typeITSCV" route="a1:b1TOc1:c0" depart="136" />
    <vehicle id="89" type="typeITSCV" route="d0:d1TOb3:b4" depart="136" />
    <vehicle id="90" type="typeITSCV" route="e3:d3TOd1:e1" depart="136" />
    <vehicle id="91" type="typeITSCV" route="a3:b3TOb3:b4" depart="139" />
    <vehicle id="92" type="typeITSCV" route="e1:d1TOd3:e3" depart="141" />
    <vehicle id="93" type="typeITSCV" route="a2:b2TOd1:e1" depart="143" />
    <vehicle id="94" type="typeITSCV" route="d0:d1TOb1:a1" depart="143" />
    <vehicle id="95" type="typeITSCV" route="a1:b1TOd3:e3" depart="144" />
    <vehicle id="96" type="typeITSCV" route="c4:c3TOb3:b4" depart="145" />
    <vehicle id="97" type="typeITSCV" route="e2:d2TOc1:c0" depart="145" />
    <vehicle id="98" type="typeITSCV" route="c4:c3TOd1:e1" depart="147" />
    <vehicle id="99" type="typeITSCV" route="b4:b3TOd2:e2" depart="148" />
    <vehicle id="100" type="typeITSCV" route="d4:d3TOd1:e1" depart="148" />
    <vehicle id="101" type="typeITSCV" route="e1:d1TOb1:a1" depart="149" />
    <vehicle id="102" type="typeITSCV" route="e2:d2TOb2:a2" depart="150" />
    <vehicle id="103" type="typeITSCV" route="b0:b1TOb3:b4" depart="153" />
    <vehicle id="104" type="typeITSCV" route="e2:d2TOb3:b4" depart="153" />
    <vehicle id="105" type="typeITSCV" route="b0:b1TOb3:b4" depart="154" />
    <vehicle id="106" type="typeITSCV" route="e2:d2TOb3:a3" depart="154" />
    <vehicle id="107" type="typeITSCV" route="c4:c3TOd2:e2" depart="155" />
    <vehicle id="108" type="typeITSCV" route="d4:d3TOc3:c4" depart="156" />
    <vehicle id="109" type="typeITSCV" route="d0:d1TOd3:e3" depart="157" />
    <vehicle id="110" type="typeITSCV" route="d4:d3TOb3:b4" depart="158" />
    <vehicle id="111" type="typeITSCV" route="a2:b2TOc3:c4" depart="159" />
    <vehicle id="112" type="typeITSCV" route="b0:b1TOb3:b4" depart="159" />
    <vehicle id="113" type="typeITSCV" route="a1:b1TOb1:a1" depart="161" />
    <vehicle id="114" type="typeITSCV" route="c0:c1TOd1:d0" depart="161" />
    <vehicle id="115" type="typeITSCV" route="c0:c1TOb1:b0" depart="163" />
    <vehicle id="116" type="typeITSCV" route="c4:c3TOd3:d4" depart="163" />
    <vehicle id="117" type="typeITSCV" route="e2:d2TOd3:e3" depart="163" />
    <vehicle id="118" type="typeITSCV" route="c0:c1TOd1:e1" depart="164" />
    <vehicle id="119" type="typeITSCV" route="d0:d1TOc3:c4" depart="165" />
    <vehicle id="120" type="typeITSCV" route="e1:d1TOc1:c0" depart="165" />
    <vehicle id="121" type="typeITSCV" route="e2:d2TOb2:a2" depart="165" />
    <vehicle id="122" type="typeITSCV" route="a3:b3TOd1:e1" depart="167" />
    <vehicle id="123" type="typeITSCV" route="e1:d1TOd3:e3" depart="170" />
    <vehicle id="124" type="typeITSCV" route="a3:b3TOd2:e2" depart="171" />
    <vehicle id="125" type="typeITSCV" route="a2:b2TOb1:a1" depart="172" />
    <vehicle id="126" type="typeITSCV" route="b0:b1TOd1:e1" depart="173" />
    <vehicle id="127" type="typeITSCV" route="e3:d3TOb2:a2" depart="179" />
    <vehicle id="128" type="typeITSCV" route="c0:c1TOc1:c0" depart="180" />
    <vehicle id="129" type="typeITSCV" route="a3:b3TOb2:a2" depart="182" />
    <vehicle id="130" type="typeITSCV" route="d4:d3TOc1:c0" depart="182" />
    <vehicle id="131" type="typeITSCV" route="e1:d1TOd3:e3" depart="184" />
    <vehicle id="132" type="typeITSCV" route="b0:b1TOb3:a3" depart="185" />
    <vehicle id="133" type="typeITSCV" route="a1:b1TOb1:b0" depart="187" />
    <vehicle id="134" type="typeITSCV" route="a1:b1TOb3:b4" depart="187" />
    <vehicle id="135" type="typeITSCV" route="b0:b1TOb3:a3" depart="187" />
    <vehicle id="136" type="typeITSCV" route="b4:b3TOb3:a3" depart="188" />
    <vehicle id="137" type="typeITSCV" route="b4:b3TOb3:b4" depart="190" />
    <vehicle id="138" type="typeITSCV" route="e2:d2TOb3:b4" depart="190" />
    <vehicle id="139" type="typeITSCV" route="a2:b2TOb2:a2" depart="192" />
    <vehicle id="140" type="typeITSCV" route="c4:c3TOc1:c0" depart="192" />
    <vehicle id="141" type="typeITSCV" route="a3:b3TOc1:c0" depart="193" />
    <vehicle id="142" type="typeITSCV" route="c0:c1TOb2:a2" depart="194" />
    <vehicle id="143" type="typeITSCV" route="c4:c3TOb3:b4" depart="194" />
    <vehicle id="144" type="typeITSCV" route="e1:d1TOd1:e1" depart="194" />
    <vehicle id="145" type="typeITSCV" route="b0:b1TOd3:d4" depart="195" />
    <vehicle id="146" type="typeITSCV" route="e3:d3TOb1:b0" depart="195" />
    <vehicle id="147" type="typeITSCV" route="a2:b2TOb1:b0" depart="202" />
    <vehicle id="148" type="typeITSCV" route="b0:b1TOd1:d0" depart="204" />
    <vehicle id="149" type="typeITSCV" route="d0:d1TOc1:c0" depart="205" />
    <vehicle id="150" type="typeITSCV" route="d4:d3TOd1:d0" depart="205" />
    <vehicle id="151" type="typeITSCV" route="d4:d3TOd3:d4" depart="205" />
    <vehicle id="152" type="typeITSCV" route="b0:b1TOd1:d0" depart="209" />
    <vehicle id="153" type="typeITSCV" route="d4:d3TOb1:a1" depart="210" />
    <vehicle id="154" type="typeITSCV" route="c0:c1TOb1:b0" depart="211" />
    <vehicle id="155" type="typeITSCV" route="d4:d3TOd3:d4" depart="212" />
    <vehicle id="156" type="typeITSCV" route="b4:b3TOd1:e1" depart="214" />
    <vehicle id="157" type="typeITSCV" route="d0:d1TOd1:d0" depart="215" />
    <vehicle id="158" type="typeITSCV" route="e2:d2TOc3:c4" depart="215" />
    <vehicle id="159" type="typeITSCV" route="b4:b3TOb1:b0" depart="216" />
    <vehicle id="160" type="typeITSCV" route="e3:d3TOd1:e1" depart="216" />
    <vehicle id="161" type="typeITSCV" route="a3:b3TOc3:c4" depart="219" />
    <vehicle id="162" type="typeITSCV" route="b4:b3TOc3:c4" depart="219" />
    <vehicle id="163" type="typeITSCV" route="c0:c1TOb3:b4" depart="221" />
    <vehicle id="164" type="typeITSCV" route="d0:d1TOd1:d0" depart="226" />
    <vehicle id="165" type="typeITSCV" route="d4:d3TOc1:c0" depart="226" />
    <vehicle id="166" type="typeITSCV" route="e1:d1TOb2:a2" depart="227" />
    <vehicle id="167" type="typeITSCV" route="c4:c3TOc3:c4" depart="229" />
    <vehicle id="168" type="typeITSCV" route="a2:b2TOd2:e2" depart="230" />
    <vehicle id="169" type="typeITSCV" route="e1:d1TOc1:c0" depart="230" />
    <vehicle id="170" type="typeITSCV" route="e3:d3TOd3:e3" depart="231" />
    <vehicle id="171" type="typeITSCV" route="e2:d2TOb1:a1" depart="232" />
    <vehicle id="172" type="typeITSCV" route="b4:b3TOd2:e2" depart="234" />
    <vehicle id="173" type="typeITSCV" route="a1:b1TOb3:a3" depart="235" />
    <vehicle id="174" type="typeITSCV" route="b4:b3TOb3:b4" depart="235" />
    <vehicle id="175" type="typeITSCV" route="b4:b3TOd3:d4" depart="236" />
    <vehicle id="176" type="typeITSCV" route="a1:b1TOb1:a1" depart="240" />
    <vehicle id="177" type="typeITSCV" route="a2:b2TOd1:e1" depart="241" />
    <vehicle id="178" type="typeITSCV" route="b0:b1TOd1:e1" depart="241" />
    <vehicle id="179" type="typeITSCV" route="e1:d1TOb3:a3" depart="243" />
    <vehicle id="180" type="typeITSCV" route="d0:d1TOd3:d4" depart="244" />
    <vehicle id="181" type="typeITSCV" route="e1:d1TOb3:b4" depart="245" />
    <vehicle id="182" type="typeITSCV" route="a2:b2TOc3:c4" depart="247" />
    <vehicle id="183" type="typeITSCV" route="c4:c3TOb1:a1" depart="247" />
    <vehicle id="184" type="typeITSCV" route="a3:b3TOb3:b4" depart="248" />
    <vehicle id="185" type="typeITSCV" route="e3:d3TOd3:e3" depart="248" />
</routes>
