<routes>
    <vType id="typeHuman" accel="0.8" decel="4.5" sigma="0.5" length="5" minGap="2.5" maxSpeed="25" guiShape="passenger" color="1,1,0">
    </vType>

    <vType id="typeITSCV" accel="0.8" decel="4.5" sigma="0.5" length="5" minGap="2.5" maxSpeed="25" guiShape="passenger" color="1,0,0">
        <carFollowing-Krauss tau="1.0"/>
    </vType>

    <route id="8to6" edges="8:2 2:0 0:1 1:5 5:6" />
    <route id="8to7" edges="8:2 2:0 0:1 1:3 3:7" />
    <route id="8to10" edges="8:2 2:0 0:9 9:10" />
    <route id="7to6" edges="7:3 3:1 1:5 5:6" />
    <route id="7to8" edges="7:3 3:1 1:0 0:2 2:8" />
    <route id="7to10" edges="7:3 3:1 1:0 0:9 9:10" />
    <route id="6to8" edges="6:5 5:1 1:0 0:2 2:8" />
    <route id="6to7" edges="6:5 5:1 1:3 3:7" />
    <route id="6to10" edges="6:5 5:1 1:0 0:9 9:10" />
    <route id="10to6" edges="10:9 9:0 0:1 1:5 5:6" />
    <route id="10to7" edges="10:9 9:0 0:1 1:3 3:7" />
    <route id="10to8" edges="10:9 9:0 0:2 2:8" />
    
    <vehicle id="0" type="typeITSCV" route="6to7" depart="2" />
    <vehicle id="1" type="typeITSCV" route="6to8" depart="4" />
    <vehicle id="2" type="typeITSCV" route="7to8" depart="6" />
    <vehicle id="3" type="typeITSCV" route="6to10" depart="6" />
    <vehicle id="4" type="typeITSCV" route="10to7" depart="7" />
    <vehicle id="5" type="typeITSCV" route="10to8" depart="8" />
    <vehicle id="6" type="typeITSCV" route="6to10" depart="9" />
    <vehicle id="7" type="typeITSCV" route="10to6" depart="11" />
    <vehicle id="8" type="typeITSCV" route="8to7" depart="14" />
    <vehicle id="9" type="typeITSCV" route="8to6" depart="16" />
    <vehicle id="10" type="typeITSCV" route="6to10" depart="18" />
    <vehicle id="11" type="typeITSCV" route="7to6" depart="22" />
    <vehicle id="12" type="typeITSCV" route="7to8" depart="23" />
    <vehicle id="13" type="typeITSCV" route="6to10" depart="24" />
    <vehicle id="14" type="typeITSCV" route="7to10" depart="25" />
    <vehicle id="15" type="typeITSCV" route="10to6" depart="26" />
    <vehicle id="16" type="typeITSCV" route="6to10" depart="27" />
    <vehicle id="17" type="typeITSCV" route="10to8" depart="27" />
    <vehicle id="18" type="typeITSCV" route="7to8" depart="28" />
    <vehicle id="19" type="typeITSCV" route="6to8" depart="32" />
    <vehicle id="20" type="typeITSCV" route="8to7" depart="35" />
    <vehicle id="21" type="typeITSCV" route="8to10" depart="41" />
    <vehicle id="22" type="typeITSCV" route="6to7" depart="43" />
    <vehicle id="23" type="typeITSCV" route="7to10" depart="45" />
    <vehicle id="24" type="typeITSCV" route="8to7" depart="47" />
    <vehicle id="25" type="typeITSCV" route="7to6" depart="47" />
    <vehicle id="26" type="typeITSCV" route="10to7" depart="47" />
    <vehicle id="27" type="typeITSCV" route="7to8" depart="51" />
    <vehicle id="28" type="typeITSCV" route="10to6" depart="55" />
    <vehicle id="29" type="typeITSCV" route="6to8" depart="56" />
    <vehicle id="30" type="typeITSCV" route="8to6" depart="69" />
    <vehicle id="31" type="typeITSCV" route="6to8" depart="69" />
    <vehicle id="32" type="typeITSCV" route="10to7" depart="70" />
    <vehicle id="33" type="typeITSCV" route="8to7" depart="71" />
    <vehicle id="34" type="typeITSCV" route="6to7" depart="71" />
    <vehicle id="35" type="typeITSCV" route="6to7" depart="73" />
    <vehicle id="36" type="typeITSCV" route="6to10" depart="74" />
    <vehicle id="37" type="typeITSCV" route="7to6" depart="75" />
    <vehicle id="38" type="typeITSCV" route="8to7" depart="76" />
    <vehicle id="39" type="typeITSCV" route="7to6" depart="78" />
    <vehicle id="40" type="typeITSCV" route="6to7" depart="79" />
    <vehicle id="41" type="typeITSCV" route="10to8" depart="79" />
    <vehicle id="42" type="typeITSCV" route="8to7" depart="88" />
    <vehicle id="43" type="typeITSCV" route="10to6" depart="92" />
    <vehicle id="44" type="typeITSCV" route="7to6" depart="93" />
    <vehicle id="45" type="typeITSCV" route="8to6" depart="94" />
    <vehicle id="46" type="typeITSCV" route="7to10" depart="97" />
    <vehicle id="47" type="typeITSCV" route="6to7" depart="99" />
    <vehicle id="48" type="typeITSCV" route="10to7" depart="100" />
    <vehicle id="49" type="typeITSCV" route="8to7" depart="102" />
    <vehicle id="50" type="typeITSCV" route="8to6" depart="103" />
    <vehicle id="51" type="typeITSCV" route="7to8" depart="103" />
    <vehicle id="52" type="typeITSCV" route="6to8" depart="104" />
    <vehicle id="53" type="typeITSCV" route="10to7" depart="104" />
    <vehicle id="54" type="typeITSCV" route="10to8" depart="108" />
    <vehicle id="55" type="typeITSCV" route="6to10" depart="112" />
    <vehicle id="56" type="typeITSCV" route="6to10" depart="113" />
    <vehicle id="57" type="typeITSCV" route="8to10" depart="115" />
    <vehicle id="58" type="typeITSCV" route="10to8" depart="115" />
    <vehicle id="59" type="typeITSCV" route="8to6" depart="116" />
    <vehicle id="60" type="typeITSCV" route="6to8" depart="117" />
    <vehicle id="61" type="typeITSCV" route="6to10" depart="118" />
    <vehicle id="62" type="typeITSCV" route="10to8" depart="119" />
    <vehicle id="63" type="typeITSCV" route="6to7" depart="129" />
    <vehicle id="64" type="typeITSCV" route="8to6" depart="134" />
    <vehicle id="65" type="typeITSCV" route="6to7" depart="134" />
    <vehicle id="66" type="typeITSCV" route="8to7" depart="137" />
    <vehicle id="67" type="typeITSCV" route="7to6" depart="137" />
    <vehicle id="68" type="typeITSCV" route="7to10" depart="138" />
    <vehicle id="69" type="typeITSCV" route="10to8" depart="148" />
    <vehicle id="70" type="typeITSCV" route="8to10" depart="149" />
    <vehicle id="71" type="typeITSCV" route="6to8" depart="150" />
    <vehicle id="72" type="typeITSCV" route="10to7" depart="151" />
    <vehicle id="73" type="typeITSCV" route="7to6" depart="152" />
    <vehicle id="74" type="typeITSCV" route="10to6" depart="153" />
    <vehicle id="75" type="typeITSCV" route="10to6" depart="155" />
    <vehicle id="76" type="typeITSCV" route="10to8" depart="155" />
    <vehicle id="77" type="typeITSCV" route="6to10" depart="156" />
    <vehicle id="78" type="typeITSCV" route="10to6" depart="158" />
    <vehicle id="79" type="typeITSCV" route="8to6" depart="159" />
    <vehicle id="80" type="typeITSCV" route="8to10" depart="160" />
    <vehicle id="81" type="typeITSCV" route="6to10" depart="163" />
    <vehicle id="82" type="typeITSCV" route="7to10" depart="165" />
    <vehicle id="83" type="typeITSCV" route="8to10" depart="167" />
    <vehicle id="84" type="typeITSCV" route="6to8" depart="167" />
    <vehicle id="85" type="typeITSCV" route="7to8" depart="168" />
    <vehicle id="86" type="typeITSCV" route="6to8" depart="168" />
    <vehicle id="87" type="typeITSCV" route="8to10" depart="169" />
    <vehicle id="88" type="typeITSCV" route="7to6" depart="169" />
    <vehicle id="89" type="typeITSCV" route="10to6" depart="174" />
    <vehicle id="90" type="typeITSCV" route="10to8" depart="176" />
    <vehicle id="91" type="typeITSCV" route="8to10" depart="177" />
    <vehicle id="92" type="typeITSCV" route="8to7" depart="183" />
    <vehicle id="93" type="typeITSCV" route="8to7" depart="184" />
    <vehicle id="94" type="typeITSCV" route="10to8" depart="184" />
    <vehicle id="95" type="typeITSCV" route="7to10" depart="188" />
    <vehicle id="96" type="typeITSCV" route="10to8" depart="190" />
    <vehicle id="97" type="typeITSCV" route="8to10" depart="192" />
    <vehicle id="98" type="typeITSCV" route="8to6" depart="194" />
    <vehicle id="99" type="typeITSCV" route="7to10" depart="197" />
    <vehicle id="100" type="typeITSCV" route="10to6" depart="197" />
    <vehicle id="101" type="typeITSCV" route="8to10" depart="203" />
    <vehicle id="102" type="typeITSCV" route="7to6" depart="203" />
    <vehicle id="103" type="typeITSCV" route="6to10" depart="203" />
    <vehicle id="104" type="typeITSCV" route="7to6" depart="204" />
    <vehicle id="105" type="typeITSCV" route="8to7" depart="205" />
    <vehicle id="106" type="typeITSCV" route="8to7" depart="209" />
    <vehicle id="107" type="typeITSCV" route="7to10" depart="209" />
    <vehicle id="108" type="typeITSCV" route="7to10" depart="210" />
    <vehicle id="109" type="typeITSCV" route="7to10" depart="212" />
    <vehicle id="110" type="typeITSCV" route="10to7" depart="212" />
    <vehicle id="111" type="typeITSCV" route="7to10" depart="214" />
    <vehicle id="112" type="typeITSCV" route="10to8" depart="216" />
    <vehicle id="113" type="typeITSCV" route="6to8" depart="218" />
    <vehicle id="114" type="typeITSCV" route="6to8" depart="220" />
    <vehicle id="115" type="typeITSCV" route="10to7" depart="222" />
    <vehicle id="116" type="typeITSCV" route="6to8" depart="223" />
    <vehicle id="117" type="typeITSCV" route="7to6" depart="228" />
    <vehicle id="118" type="typeITSCV" route="6to7" depart="228" />
    <vehicle id="119" type="typeITSCV" route="8to10" depart="231" />
    <vehicle id="120" type="typeITSCV" route="7to10" depart="231" />
    <vehicle id="121" type="typeITSCV" route="8to6" depart="232" />
    <vehicle id="122" type="typeITSCV" route="7to10" depart="232" />
    <vehicle id="123" type="typeITSCV" route="6to7" depart="234" />
    <vehicle id="124" type="typeITSCV" route="8to7" depart="237" />
    <vehicle id="125" type="typeITSCV" route="8to7" depart="240" />
    <vehicle id="126" type="typeITSCV" route="10to6" depart="243" />
    <vehicle id="127" type="typeITSCV" route="6to10" depart="244" />
    <vehicle id="128" type="typeITSCV" route="6to7" depart="246" />
    <vehicle id="129" type="typeITSCV" route="8to7" depart="248" />
    <vehicle id="130" type="typeITSCV" route="7to6" depart="250" />
    <vehicle id="131" type="typeITSCV" route="10to8" depart="251" />
    <vehicle id="132" type="typeITSCV" route="7to6" depart="254" />
    <vehicle id="133" type="typeITSCV" route="10to7" depart="256" />
    <vehicle id="134" type="typeITSCV" route="8to6" depart="257" />
    <vehicle id="135" type="typeITSCV" route="6to7" depart="260" />
    <vehicle id="136" type="typeITSCV" route="8to10" depart="267" />
    <vehicle id="137" type="typeITSCV" route="7to6" depart="270" />
    <vehicle id="138" type="typeITSCV" route="10to8" depart="271" />
    <vehicle id="139" type="typeITSCV" route="8to7" depart="272" />
    <vehicle id="140" type="typeITSCV" route="8to10" depart="273" />
    <vehicle id="141" type="typeITSCV" route="6to8" depart="274" />
    <vehicle id="142" type="typeITSCV" route="7to6" depart="277" />
    <vehicle id="143" type="typeITSCV" route="6to10" depart="277" />
    <vehicle id="144" type="typeITSCV" route="7to6" depart="278" />
    <vehicle id="145" type="typeITSCV" route="7to10" depart="279" />
    <vehicle id="146" type="typeITSCV" route="7to8" depart="281" />
    <vehicle id="147" type="typeITSCV" route="7to8" depart="284" />
    <vehicle id="148" type="typeITSCV" route="7to10" depart="287" />
    <vehicle id="149" type="typeITSCV" route="10to7" depart="288" />
    <vehicle id="150" type="typeITSCV" route="6to7" depart="291" />
    <vehicle id="151" type="typeITSCV" route="6to10" depart="292" />
    <vehicle id="152" type="typeITSCV" route="6to8" depart="293" />
    <vehicle id="153" type="typeITSCV" route="6to10" depart="293" />
    <vehicle id="154" type="typeITSCV" route="10to6" depart="293" />
    <vehicle id="155" type="typeITSCV" route="6to8" depart="296" />
    <vehicle id="156" type="typeITSCV" route="8to7" depart="297" />
    <vehicle id="157" type="typeITSCV" route="10to6" depart="300" />
    <vehicle id="158" type="typeITSCV" route="7to6" depart="307" />
    <vehicle id="159" type="typeITSCV" route="8to10" depart="313" />
    <vehicle id="160" type="typeITSCV" route="6to7" depart="315" />
    <vehicle id="161" type="typeITSCV" route="6to7" depart="319" />
    <vehicle id="162" type="typeITSCV" route="6to10" depart="319" />
    <vehicle id="163" type="typeITSCV" route="10to6" depart="319" />
    <vehicle id="164" type="typeITSCV" route="8to6" depart="321" />
    <vehicle id="165" type="typeITSCV" route="7to8" depart="322" />
    <vehicle id="166" type="typeITSCV" route="8to6" depart="323" />
    <vehicle id="167" type="typeITSCV" route="7to6" depart="323" />
    <vehicle id="168" type="typeITSCV" route="7to8" depart="325" />
    <vehicle id="169" type="typeITSCV" route="6to7" depart="326" />
    <vehicle id="170" type="typeITSCV" route="10to6" depart="329" />
    <vehicle id="171" type="typeITSCV" route="7to6" depart="332" />
    <vehicle id="172" type="typeITSCV" route="6to10" depart="332" />
    <vehicle id="173" type="typeITSCV" route="7to8" depart="334" />
    <vehicle id="174" type="typeITSCV" route="10to7" depart="336" />
    <vehicle id="175" type="typeITSCV" route="6to10" depart="339" />
    <vehicle id="176" type="typeITSCV" route="7to10" depart="340" />
    <vehicle id="177" type="typeITSCV" route="10to6" depart="341" />
    <vehicle id="178" type="typeITSCV" route="6to8" depart="344" />
    <vehicle id="179" type="typeITSCV" route="10to6" depart="346" />
    <vehicle id="180" type="typeITSCV" route="7to10" depart="349" />
    <vehicle id="181" type="typeITSCV" route="6to10" depart="351" />
    <vehicle id="182" type="typeITSCV" route="6to8" depart="355" />
    <vehicle id="183" type="typeITSCV" route="8to6" depart="358" />
    <vehicle id="184" type="typeITSCV" route="6to7" depart="358" />
    <vehicle id="185" type="typeITSCV" route="8to10" depart="363" />
    <vehicle id="186" type="typeITSCV" route="10to8" depart="364" />
    <vehicle id="187" type="typeITSCV" route="8to6" depart="366" />
    <vehicle id="188" type="typeITSCV" route="6to8" depart="366" />
    <vehicle id="189" type="typeITSCV" route="7to6" depart="368" />
    <vehicle id="190" type="typeITSCV" route="7to8" depart="371" />
    <vehicle id="191" type="typeITSCV" route="6to8" depart="373" />
    <vehicle id="192" type="typeITSCV" route="10to7" depart="378" />
    <vehicle id="193" type="typeITSCV" route="8to6" depart="379" />
    <vehicle id="194" type="typeITSCV" route="10to8" depart="379" />
    <vehicle id="195" type="typeITSCV" route="7to8" depart="385" />
    <vehicle id="196" type="typeITSCV" route="6to8" depart="386" />
    <vehicle id="197" type="typeITSCV" route="6to7" depart="386" />
    <vehicle id="198" type="typeITSCV" route="7to10" depart="388" />
    <vehicle id="199" type="typeITSCV" route="7to10" depart="389" />
    <vehicle id="200" type="typeITSCV" route="7to8" depart="390" />
    <vehicle id="201" type="typeITSCV" route="6to10" depart="390" />
    <vehicle id="202" type="typeITSCV" route="10to7" depart="392" />
    <vehicle id="203" type="typeITSCV" route="10to6" depart="400" />
    <vehicle id="204" type="typeITSCV" route="8to6" depart="403" />
    <vehicle id="205" type="typeITSCV" route="6to8" depart="409" />
    <vehicle id="206" type="typeITSCV" route="8to7" depart="414" />
    <vehicle id="207" type="typeITSCV" route="10to6" depart="421" />
    <vehicle id="208" type="typeITSCV" route="10to6" depart="425" />
    <vehicle id="209" type="typeITSCV" route="7to10" depart="427" />
    <vehicle id="210" type="typeITSCV" route="10to6" depart="437" />
    <vehicle id="211" type="typeITSCV" route="6to7" depart="439" />
    <vehicle id="212" type="typeITSCV" route="6to8" depart="442" />
    <vehicle id="213" type="typeITSCV" route="6to10" depart="443" />
    <vehicle id="214" type="typeITSCV" route="10to8" depart="450" />
    <vehicle id="215" type="typeITSCV" route="7to8" depart="451" />
    <vehicle id="216" type="typeITSCV" route="6to10" depart="453" />
    <vehicle id="217" type="typeITSCV" route="6to10" depart="455" />
    <vehicle id="218" type="typeITSCV" route="10to6" depart="455" />
    <vehicle id="219" type="typeITSCV" route="10to6" depart="456" />
    <vehicle id="220" type="typeITSCV" route="7to6" depart="459" />
    <vehicle id="221" type="typeITSCV" route="6to7" depart="461" />
    <vehicle id="222" type="typeITSCV" route="8to6" depart="463" />
    <vehicle id="223" type="typeITSCV" route="10to6" depart="467" />
    <vehicle id="224" type="typeITSCV" route="6to7" depart="470" />
    <vehicle id="225" type="typeITSCV" route="6to10" depart="470" />
    <vehicle id="226" type="typeITSCV" route="10to6" depart="471" />
    <vehicle id="227" type="typeITSCV" route="8to10" depart="472" />
    <vehicle id="228" type="typeITSCV" route="7to10" depart="477" />
    <vehicle id="229" type="typeITSCV" route="8to7" depart="479" />
    <vehicle id="230" type="typeITSCV" route="8to7" depart="480" />
    <vehicle id="231" type="typeITSCV" route="6to8" depart="488" />
    <vehicle id="232" type="typeITSCV" route="10to6" depart="493" />
    <vehicle id="233" type="typeITSCV" route="8to10" depart="494" />
    <vehicle id="234" type="typeITSCV" route="8to7" depart="495" />
    <vehicle id="235" type="typeITSCV" route="6to8" depart="496" />
    <vehicle id="236" type="typeITSCV" route="8to7" depart="498" />
    <vehicle id="237" type="typeITSCV" route="6to8" depart="498" />
    <vehicle id="238" type="typeITSCV" route="6to10" depart="498" />
    <vehicle id="239" type="typeITSCV" route="8to7" depart="504" />
    <vehicle id="240" type="typeITSCV" route="7to8" depart="504" />
    <vehicle id="241" type="typeITSCV" route="10to6" depart="508" />
    <vehicle id="242" type="typeITSCV" route="6to8" depart="511" />
    <vehicle id="243" type="typeITSCV" route="8to10" depart="513" />
    <vehicle id="244" type="typeITSCV" route="6to10" depart="514" />
    <vehicle id="245" type="typeITSCV" route="6to8" depart="516" />
    <vehicle id="246" type="typeITSCV" route="8to10" depart="518" />
    <vehicle id="247" type="typeITSCV" route="10to6" depart="527" />
    <vehicle id="248" type="typeITSCV" route="10to7" depart="527" />
    <vehicle id="249" type="typeITSCV" route="7to8" depart="528" />
    <vehicle id="250" type="typeITSCV" route="6to7" depart="528" />
    <vehicle id="251" type="typeITSCV" route="10to8" depart="534" />
    <vehicle id="252" type="typeITSCV" route="10to7" depart="537" />
    <vehicle id="253" type="typeITSCV" route="6to7" depart="540" />
    <vehicle id="254" type="typeITSCV" route="6to10" depart="541" />
    <vehicle id="255" type="typeITSCV" route="7to8" depart="549" />
    <vehicle id="256" type="typeITSCV" route="7to6" depart="555" />
    <vehicle id="257" type="typeITSCV" route="8to6" depart="556" />
    <vehicle id="258" type="typeITSCV" route="6to7" depart="556" />
    <vehicle id="259" type="typeITSCV" route="6to10" depart="556" />
    <vehicle id="260" type="typeITSCV" route="10to6" depart="556" />
    <vehicle id="261" type="typeITSCV" route="6to8" depart="560" />
    <vehicle id="262" type="typeITSCV" route="10to7" depart="561" />
    <vehicle id="263" type="typeITSCV" route="10to8" depart="564" />
    <vehicle id="264" type="typeITSCV" route="10to7" depart="565" />
    <vehicle id="265" type="typeITSCV" route="8to7" depart="568" />
    <vehicle id="266" type="typeITSCV" route="7to8" depart="573" />
    <vehicle id="267" type="typeITSCV" route="10to6" depart="575" />
    <vehicle id="268" type="typeITSCV" route="7to8" depart="576" />
    <vehicle id="269" type="typeITSCV" route="7to8" depart="580" />
    <vehicle id="270" type="typeITSCV" route="10to6" depart="582" />
    <vehicle id="271" type="typeITSCV" route="10to7" depart="583" />
    <vehicle id="272" type="typeITSCV" route="7to10" depart="584" />
    <vehicle id="273" type="typeITSCV" route="10to6" depart="590" />
    <vehicle id="274" type="typeITSCV" route="7to10" depart="591" />
    <vehicle id="275" type="typeITSCV" route="6to10" depart="595" />
    <vehicle id="276" type="typeITSCV" route="7to6" depart="605" />
    <vehicle id="277" type="typeITSCV" route="8to7" depart="606" />
    <vehicle id="278" type="typeITSCV" route="8to10" depart="607" />
    <vehicle id="279" type="typeITSCV" route="7to8" depart="607" />
    <vehicle id="280" type="typeITSCV" route="10to8" depart="607" />
    <vehicle id="281" type="typeITSCV" route="8to6" depart="608" />
    <vehicle id="282" type="typeITSCV" route="8to10" depart="609" />
    <vehicle id="283" type="typeITSCV" route="7to6" depart="615" />
    <vehicle id="284" type="typeITSCV" route="7to8" depart="622" />
    <vehicle id="285" type="typeITSCV" route="8to7" depart="623" />
    <vehicle id="286" type="typeITSCV" route="8to7" depart="624" />
    <vehicle id="287" type="typeITSCV" route="10to6" depart="631" />
    <vehicle id="288" type="typeITSCV" route="7to10" depart="638" />
    <vehicle id="289" type="typeITSCV" route="7to8" depart="639" />
    <vehicle id="290" type="typeITSCV" route="10to6" depart="640" />
    <vehicle id="291" type="typeITSCV" route="10to6" depart="643" />
    <vehicle id="292" type="typeITSCV" route="7to10" depart="644" />
    <vehicle id="293" type="typeITSCV" route="6to10" depart="645" />
    <vehicle id="294" type="typeITSCV" route="6to7" depart="648" />
    <vehicle id="295" type="typeITSCV" route="8to7" depart="649" />
    <vehicle id="296" type="typeITSCV" route="10to7" depart="649" />
    <vehicle id="297" type="typeITSCV" route="6to7" depart="650" />
    <vehicle id="298" type="typeITSCV" route="7to8" depart="651" />
    <vehicle id="299" type="typeITSCV" route="10to6" depart="656" />
    <vehicle id="300" type="typeITSCV" route="7to10" depart="657" />
    <vehicle id="301" type="typeITSCV" route="10to6" depart="658" />
    <vehicle id="302" type="typeITSCV" route="8to7" depart="661" />
    <vehicle id="303" type="typeITSCV" route="8to10" depart="662" />
    <vehicle id="304" type="typeITSCV" route="10to7" depart="665" />
    <vehicle id="305" type="typeITSCV" route="8to10" depart="666" />
    <vehicle id="306" type="typeITSCV" route="10to8" depart="667" />
    <vehicle id="307" type="typeITSCV" route="6to7" depart="668" />
    <vehicle id="308" type="typeITSCV" route="8to10" depart="669" />
    <vehicle id="309" type="typeITSCV" route="8to7" depart="671" />
    <vehicle id="310" type="typeITSCV" route="10to8" depart="671" />
    <vehicle id="311" type="typeITSCV" route="7to8" depart="672" />
    <vehicle id="312" type="typeITSCV" route="10to7" depart="673" />
    <vehicle id="313" type="typeITSCV" route="7to6" depart="680" />
    <vehicle id="314" type="typeITSCV" route="8to7" depart="682" />
    <vehicle id="315" type="typeITSCV" route="10to8" depart="683" />
    <vehicle id="316" type="typeITSCV" route="8to10" depart="684" />
    <vehicle id="317" type="typeITSCV" route="7to8" depart="685" />
    <vehicle id="318" type="typeITSCV" route="10to6" depart="685" />
    <vehicle id="319" type="typeITSCV" route="10to8" depart="686" />
    <vehicle id="320" type="typeITSCV" route="8to10" depart="688" />
    <vehicle id="321" type="typeITSCV" route="10to6" depart="691" />
    <vehicle id="322" type="typeITSCV" route="7to8" depart="694" />
    <vehicle id="323" type="typeITSCV" route="10to7" depart="694" />
    <vehicle id="324" type="typeITSCV" route="7to8" depart="695" />
    <vehicle id="325" type="typeITSCV" route="6to10" depart="696" />
    <vehicle id="326" type="typeITSCV" route="8to10" depart="699" />
    <vehicle id="327" type="typeITSCV" route="6to10" depart="699" />
    <vehicle id="328" type="typeITSCV" route="10to8" depart="705" />
    <vehicle id="329" type="typeITSCV" route="10to6" depart="710" />
    <vehicle id="330" type="typeITSCV" route="10to7" depart="710" />
    <vehicle id="331" type="typeITSCV" route="7to10" depart="714" />
    <vehicle id="332" type="typeITSCV" route="6to10" depart="716" />
    <vehicle id="333" type="typeITSCV" route="10to7" depart="716" />
    <vehicle id="334" type="typeITSCV" route="7to10" depart="718" />
    <vehicle id="335" type="typeITSCV" route="6to10" depart="719" />
    <vehicle id="336" type="typeITSCV" route="8to6" depart="720" />
    <vehicle id="337" type="typeITSCV" route="10to7" depart="720" />
    <vehicle id="338" type="typeITSCV" route="10to6" depart="725" />
    <vehicle id="339" type="typeITSCV" route="10to7" depart="725" />
    <vehicle id="340" type="typeITSCV" route="6to10" depart="728" />
    <vehicle id="341" type="typeITSCV" route="10to7" depart="730" />
    <vehicle id="342" type="typeITSCV" route="8to7" depart="731" />
    <vehicle id="343" type="typeITSCV" route="8to7" depart="733" />
    <vehicle id="344" type="typeITSCV" route="8to10" depart="733" />
    <vehicle id="345" type="typeITSCV" route="7to6" depart="733" />
    <vehicle id="346" type="typeITSCV" route="8to6" depart="734" />
    <vehicle id="347" type="typeITSCV" route="8to10" depart="737" />
    <vehicle id="348" type="typeITSCV" route="6to7" depart="739" />
    <vehicle id="349" type="typeITSCV" route="10to8" depart="739" />
    <vehicle id="350" type="typeITSCV" route="7to10" depart="740" />
    <vehicle id="351" type="typeITSCV" route="10to7" depart="750" />
    <vehicle id="352" type="typeITSCV" route="8to10" depart="752" />
    <vehicle id="353" type="typeITSCV" route="10to7" depart="752" />
    <vehicle id="354" type="typeITSCV" route="8to6" depart="754" />
    <vehicle id="355" type="typeITSCV" route="10to8" depart="754" />
    <vehicle id="356" type="typeITSCV" route="6to7" depart="757" />
    <vehicle id="357" type="typeITSCV" route="6to8" depart="758" />
    <vehicle id="358" type="typeITSCV" route="7to6" depart="759" />
    <vehicle id="359" type="typeITSCV" route="6to10" depart="763" />
    <vehicle id="360" type="typeITSCV" route="10to6" depart="765" />
    <vehicle id="361" type="typeITSCV" route="7to8" depart="767" />
    <vehicle id="362" type="typeITSCV" route="6to8" depart="767" />
    <vehicle id="363" type="typeITSCV" route="10to6" depart="769" />
    <vehicle id="364" type="typeITSCV" route="8to7" depart="772" />
    <vehicle id="365" type="typeITSCV" route="8to7" depart="773" />
    <vehicle id="366" type="typeITSCV" route="10to6" depart="773" />
    <vehicle id="367" type="typeITSCV" route="6to8" depart="774" />
    <vehicle id="368" type="typeITSCV" route="8to7" depart="777" />
    <vehicle id="369" type="typeITSCV" route="6to8" depart="782" />
    <vehicle id="370" type="typeITSCV" route="10to8" depart="783" />
    <vehicle id="371" type="typeITSCV" route="8to7" depart="788" />
    <vehicle id="372" type="typeITSCV" route="6to10" depart="789" />
    <vehicle id="373" type="typeITSCV" route="6to10" depart="791" />
    <vehicle id="374" type="typeITSCV" route="7to10" depart="794" />
    <vehicle id="375" type="typeITSCV" route="6to7" depart="799" />
    <vehicle id="376" type="typeITSCV" route="6to10" depart="799" />
    <vehicle id="377" type="typeITSCV" route="7to10" depart="804" />
    <vehicle id="378" type="typeITSCV" route="8to10" depart="807" />
    <vehicle id="379" type="typeITSCV" route="10to7" depart="809" />
    <vehicle id="380" type="typeITSCV" route="7to10" depart="813" />
    <vehicle id="381" type="typeITSCV" route="8to10" depart="817" />
    <vehicle id="382" type="typeITSCV" route="6to10" depart="819" />
    <vehicle id="383" type="typeITSCV" route="10to8" depart="819" />
    <vehicle id="384" type="typeITSCV" route="8to10" depart="820" />
    <vehicle id="385" type="typeITSCV" route="7to10" depart="820" />
    <vehicle id="386" type="typeITSCV" route="8to6" depart="821" />
    <vehicle id="387" type="typeITSCV" route="6to7" depart="822" />
    <vehicle id="388" type="typeITSCV" route="7to10" depart="823" />
    <vehicle id="389" type="typeITSCV" route="10to7" depart="823" />
    <vehicle id="390" type="typeITSCV" route="7to10" depart="825" />
    <vehicle id="391" type="typeITSCV" route="10to7" depart="827" />
    <vehicle id="392" type="typeITSCV" route="7to10" depart="829" />
    <vehicle id="393" type="typeITSCV" route="8to6" depart="832" />
    <vehicle id="394" type="typeITSCV" route="8to7" depart="832" />
    <vehicle id="395" type="typeITSCV" route="7to10" depart="832" />
    <vehicle id="396" type="typeITSCV" route="7to8" depart="836" />
    <vehicle id="397" type="typeITSCV" route="10to6" depart="837" />
    <vehicle id="398" type="typeITSCV" route="10to8" depart="837" />
    <vehicle id="399" type="typeITSCV" route="10to6" depart="842" />
    <vehicle id="400" type="typeITSCV" route="8to7" depart="845" />
    <vehicle id="401" type="typeITSCV" route="8to7" depart="847" />
    <vehicle id="402" type="typeITSCV" route="8to7" depart="848" />
    <vehicle id="403" type="typeITSCV" route="6to10" depart="852" />
    <vehicle id="404" type="typeITSCV" route="8to6" depart="854" />
    <vehicle id="405" type="typeITSCV" route="10to8" depart="855" />
    <vehicle id="406" type="typeITSCV" route="6to8" depart="856" />
    <vehicle id="407" type="typeITSCV" route="7to10" depart="859" />
    <vehicle id="408" type="typeITSCV" route="10to6" depart="859" />
    <vehicle id="409" type="typeITSCV" route="6to10" depart="861" />
    <vehicle id="410" type="typeITSCV" route="8to6" depart="873" />
    <vehicle id="411" type="typeITSCV" route="6to10" depart="878" />
    <vehicle id="412" type="typeITSCV" route="7to8" depart="879" />
    <vehicle id="413" type="typeITSCV" route="6to10" depart="879" />
    <vehicle id="414" type="typeITSCV" route="10to7" depart="879" />
    <vehicle id="415" type="typeITSCV" route="10to7" depart="883" />
    <vehicle id="416" type="typeITSCV" route="8to7" depart="884" />
    <vehicle id="417" type="typeITSCV" route="8to10" depart="885" />
    <vehicle id="418" type="typeITSCV" route="7to10" depart="885" />
    <vehicle id="419" type="typeITSCV" route="10to7" depart="885" />
    <vehicle id="420" type="typeITSCV" route="6to7" depart="891" />
    <vehicle id="421" type="typeITSCV" route="8to7" depart="895" />
    <vehicle id="422" type="typeITSCV" route="6to8" depart="898" />
    <vehicle id="423" type="typeITSCV" route="10to8" depart="898" />
    <vehicle id="424" type="typeITSCV" route="8to10" depart="900" />