<routes>
    <vType id="typeHuman" accel="0.8" decel="4.5" sigma="0.5" length="5" minGap="2.5" maxSpeed="25" guiShape="passenger" color="1,1,0">
    </vType>

    <vType id="typeITSCV" accel="0.8" decel="4.5" sigma="0.5" length="5" minGap="2.5" maxSpeed="25" guiShape="passenger" color="1,0,0">
        <carFollowing-Krauss tau="1.0"/>
    </vType>

    <route id="eastSouth" edges="2:0 0:1 1:5 5:6" />
    <route id="eastWest" edges="2:0 0:1 1:3 3:7" />
    <route id="westSouth" edges="7:3 3:1 1:5 5:6" />
    <route id="westEast" edges="7:3 3:1 1:0 0:2" />
    <route id="southEast" edges="6:5 5:1 1:0 0:2" />
    <route id="southWest" edges="6:5 5:1 1:3 3:7" />
    
    <vehicle id="0" type="typeHuman" route="southEast" depart="2" />
    <vehicle id="1" type="typeHuman" route="southWest" depart="12" />
    <vehicle id="2" type="typeHuman" route="southEast" depart="14" />
    <vehicle id="3" type="typeHuman" route="eastWest" depart="16" />
    <vehicle id="4" type="typeHuman" route="southEast" depart="23" />
    <vehicle id="5" type="typeHuman" route="southWest" depart="23" />
    <vehicle id="6" type="typeHuman" route="westEast" depart="25" />
    <vehicle id="7" type="typeHuman" route="eastWest" depart="29" />
    <vehicle id="8" type="typeHuman" route="westEast" depart="39" />
    <vehicle id="9" type="typeHuman" route="westEast" depart="40" />
    <vehicle id="10" type="typeHuman" route="eastSouth" depart="45" />
    <vehicle id="11" type="typeHuman" route="southEast" depart="49" />
    <vehicle id="12" type="typeHuman" route="westEast" depart="50" />
    <vehicle id="13" type="typeHuman" route="westSouth" depart="53" />
    <vehicle id="14" type="typeHuman" route="eastWest" depart="55" />
    <vehicle id="15" type="typeHuman" route="southWest" depart="56" />
    <vehicle id="16" type="typeHuman" route="eastWest" depart="58" />
    <vehicle id="17" type="typeHuman" route="westEast" depart="70" />
    <vehicle id="18" type="typeHuman" route="westEast" depart="73" />
    <vehicle id="19" type="typeHuman" route="southEast" depart="73" />
    <vehicle id="20" type="typeHuman" route="westSouth" depart="74" />
    <vehicle id="21" type="typeHuman" route="eastSouth" depart="75" />
    <vehicle id="22" type="typeHuman" route="westSouth" depart="79" />
    <vehicle id="23" type="typeHuman" route="westSouth" depart="80" />
    <vehicle id="24" type="typeHuman" route="eastWest" depart="82" />
    <vehicle id="25" type="typeHuman" route="eastWest" depart="84" />
    <vehicle id="26" type="typeHuman" route="eastWest" depart="95" />
    <vehicle id="27" type="typeHuman" route="southEast" depart="98" />
    <vehicle id="28" type="typeHuman" route="westEast" depart="106" />
    <vehicle id="29" type="typeHuman" route="westEast" depart="107" />
    <vehicle id="30" type="typeHuman" route="westEast" depart="111" />
    <vehicle id="31" type="typeHuman" route="southEast" depart="112" />
    <vehicle id="32" type="typeHuman" route="westEast" depart="113" />
    <vehicle id="33" type="typeHuman" route="southWest" depart="115" />
    <vehicle id="34" type="typeHuman" route="westEast" depart="118" />
    <vehicle id="35" type="typeHuman" route="westEast" depart="119" />
    <vehicle id="36" type="typeHuman" route="westEast" depart="124" />
    <vehicle id="37" type="typeHuman" route="eastSouth" depart="129" />
    <vehicle id="38" type="typeHuman" route="eastWest" depart="129" />
    <vehicle id="39" type="typeHuman" route="westEast" depart="132" />
    <vehicle id="40" type="typeHuman" route="westEast" depart="133" />
    <vehicle id="41" type="typeHuman" route="westEast" depart="136" />
    <vehicle id="42" type="typeHuman" route="eastSouth" depart="143" />
    <vehicle id="43" type="typeHuman" route="westEast" depart="143" />
    <vehicle id="44" type="typeHuman" route="southEast" depart="146" />
    <vehicle id="45" type="typeHuman" route="eastWest" depart="147" />
    <vehicle id="46" type="typeHuman" route="eastWest" depart="149" />
    <vehicle id="47" type="typeHuman" route="westSouth" depart="152" />
    <vehicle id="48" type="typeHuman" route="southWest" depart="152" />
    <vehicle id="49" type="typeHuman" route="westEast" depart="153" />
    <vehicle id="50" type="typeHuman" route="westEast" depart="157" />
    <vehicle id="51" type="typeHuman" route="eastWest" depart="158" />
    <vehicle id="52" type="typeHuman" route="eastSouth" depart="163" />
    <vehicle id="53" type="typeHuman" route="eastWest" depart="163" />
    <vehicle id="54" type="typeHuman" route="southWest" depart="164" />
    <vehicle id="55" type="typeHuman" route="eastWest" depart="165" />
    <vehicle id="56" type="typeHuman" route="westEast" depart="167" />
    <vehicle id="57" type="typeHuman" route="southWest" depart="167" />
    <vehicle id="58" type="typeHuman" route="eastWest" depart="169" />
    <vehicle id="59" type="typeHuman" route="eastWest" depart="172" />
    <vehicle id="60" type="typeHuman" route="westEast" depart="173" />
    <vehicle id="61" type="typeHuman" route="eastWest" depart="175" />
    <vehicle id="62" type="typeHuman" route="eastSouth" depart="183" />
    <vehicle id="63" type="typeHuman" route="eastWest" depart="187" />
    <vehicle id="64" type="typeHuman" route="westEast" depart="187" />
    <vehicle id="65" type="typeHuman" route="westEast" depart="189" />
    <vehicle id="66" type="typeHuman" route="eastSouth" depart="192" />
    <vehicle id="67" type="typeHuman" route="westEast" depart="193" />
    <vehicle id="68" type="typeHuman" route="westSouth" depart="194" />
    <vehicle id="69" type="typeHuman" route="westEast" depart="196" />
    <vehicle id="70" type="typeHuman" route="eastWest" depart="198" />
    <vehicle id="71" type="typeHuman" route="westEast" depart="200" />
    <vehicle id="72" type="typeHuman" route="southEast" depart="202" />
    <vehicle id="73" type="typeHuman" route="southWest" depart="203" />
    <vehicle id="74" type="typeHuman" route="eastWest" depart="205" />
    <vehicle id="75" type="typeHuman" route="eastSouth" depart="206" />
    <vehicle id="76" type="typeHuman" route="westEast" depart="206" />
    <vehicle id="77" type="typeHuman" route="eastSouth" depart="207" />
    <vehicle id="78" type="typeHuman" route="westSouth" depart="212" />
    <vehicle id="79" type="typeHuman" route="westSouth" depart="213" />
    <vehicle id="80" type="typeHuman" route="eastSouth" depart="217" />
    <vehicle id="81" type="typeHuman" route="eastWest" depart="223" />
    <vehicle id="82" type="typeHuman" route="westSouth" depart="223" />
    <vehicle id="83" type="typeHuman" route="westEast" depart="232" />
    <vehicle id="84" type="typeHuman" route="eastWest" depart="240" />
    <vehicle id="85" type="typeHuman" route="westEast" depart="243" />
    <vehicle id="86" type="typeHuman" route="eastWest" depart="245" />
    <vehicle id="87" type="typeHuman" route="westEast" depart="248" />
    <vehicle id="88" type="typeHuman" route="southEast" depart="249" />
    <vehicle id="89" type="typeHuman" route="eastSouth" depart="250" />
    <vehicle id="90" type="typeHuman" route="eastWest" depart="253" />
    <vehicle id="91" type="typeHuman" route="southEast" depart="253" />
    <vehicle id="92" type="typeHuman" route="eastWest" depart="254" />
    <vehicle id="93" type="typeHuman" route="eastWest" depart="256" />
    <vehicle id="94" type="typeHuman" route="eastWest" depart="258" />
    <vehicle id="95" type="typeHuman" route="westSouth" depart="258" />
    <vehicle id="96" type="typeHuman" route="eastWest" depart="261" />
    <vehicle id="97" type="typeHuman" route="westSouth" depart="268" />
    <vehicle id="98" type="typeHuman" route="eastSouth" depart="269" />
    <vehicle id="99" type="typeHuman" route="westEast" depart="271" />
    <vehicle id="100" type="typeHuman" route="westSouth" depart="273" />
    <vehicle id="101" type="typeHuman" route="westEast" depart="275" />
    <vehicle id="102" type="typeHuman" route="eastSouth" depart="277" />
    <vehicle id="103" type="typeHuman" route="eastWest" depart="277" />
    <vehicle id="104" type="typeHuman" route="eastWest" depart="278" />
    <vehicle id="105" type="typeHuman" route="eastWest" depart="282" />
    <vehicle id="106" type="typeHuman" route="southWest" depart="283" />
    <vehicle id="107" type="typeHuman" route="westSouth" depart="287" />
    <vehicle id="108" type="typeHuman" route="westEast" depart="289" />
    <vehicle id="109" type="typeHuman" route="eastWest" depart="299" />
    <vehicle id="110" type="typeHuman" route="southWest" depart="317" />
    <vehicle id="111" type="typeHuman" route="westEast" depart="319" />
    <vehicle id="112" type="typeHuman" route="eastWest" depart="321" />
    <vehicle id="113" type="typeHuman" route="westEast" depart="328" />
    <vehicle id="114" type="typeHuman" route="eastSouth" depart="331" />
    <vehicle id="115" type="typeHuman" route="eastSouth" depart="332" />
    <vehicle id="116" type="typeHuman" route="westSouth" depart="335" />
    <vehicle id="117" type="typeHuman" route="eastWest" depart="339" />
    <vehicle id="118" type="typeHuman" route="westEast" depart="342" />
    <vehicle id="119" type="typeHuman" route="southEast" depart="360" />
    <vehicle id="120" type="typeHuman" route="westEast" depart="361" />
    <vehicle id="121" type="typeHuman" route="eastWest" depart="365" />
    <vehicle id="122" type="typeHuman" route="eastWest" depart="366" />
    <vehicle id="123" type="typeHuman" route="westEast" depart="368" />
    <vehicle id="124" type="typeHuman" route="westEast" depart="369" />
    <vehicle id="125" type="typeHuman" route="eastSouth" depart="371" />
    <vehicle id="126" type="typeHuman" route="eastSouth" depart="375" />
    <vehicle id="127" type="typeHuman" route="westEast" depart="376" />
    <vehicle id="128" type="typeHuman" route="eastWest" depart="379" />
    <vehicle id="129" type="typeHuman" route="westEast" depart="387" />
    <vehicle id="130" type="typeHuman" route="eastWest" depart="388" />
    <vehicle id="131" type="typeHuman" route="westEast" depart="389" />
    <vehicle id="132" type="typeHuman" route="southEast" depart="390" />
    <vehicle id="133" type="typeHuman" route="westEast" depart="391" />
    <vehicle id="134" type="typeHuman" route="westEast" depart="396" />
    <vehicle id="135" type="typeHuman" route="eastWest" depart="399" />
    <vehicle id="136" type="typeHuman" route="westSouth" depart="399" />
    <vehicle id="137" type="typeHuman" route="westEast" depart="399" />
    <vehicle id="138" type="typeHuman" route="westEast" depart="401" />
    <vehicle id="139" type="typeHuman" route="westEast" depart="402" />
    <vehicle id="140" type="typeHuman" route="eastWest" depart="404" />
    <vehicle id="141" type="typeHuman" route="westEast" depart="405" />
    <vehicle id="142" type="typeHuman" route="westEast" depart="406" />
    <vehicle id="143" type="typeHuman" route="southWest" depart="406" />
    <vehicle id="144" type="typeHuman" route="eastSouth" depart="411" />
    <vehicle id="145" type="typeHuman" route="eastWest" depart="419" />
    <vehicle id="146" type="typeHuman" route="eastWest" depart="420" />
    <vehicle id="147" type="typeHuman" route="southEast" depart="421" />
    <vehicle id="148" type="typeHuman" route="eastWest" depart="422" />
    <vehicle id="149" type="typeHuman" route="eastSouth" depart="423" />
    <vehicle id="150" type="typeHuman" route="westEast" depart="423" />
    <vehicle id="151" type="typeHuman" route="southEast" depart="423" />
    <vehicle id="152" type="typeHuman" route="westEast" depart="426" />
    <vehicle id="153" type="typeHuman" route="southWest" depart="428" />
    <vehicle id="154" type="typeHuman" route="eastWest" depart="438" />
    <vehicle id="155" type="typeHuman" route="westEast" depart="440" />
    <vehicle id="156" type="typeHuman" route="eastSouth" depart="443" />
    <vehicle id="157" type="typeHuman" route="westSouth" depart="447" />
    <vehicle id="158" type="typeHuman" route="westSouth" depart="448" />
    <vehicle id="159" type="typeHuman" route="eastWest" depart="450" />
    <vehicle id="160" type="typeHuman" route="westSouth" depart="450" />
    <vehicle id="161" type="typeHuman" route="westEast" depart="453" />
    <vehicle id="162" type="typeHuman" route="westEast" depart="454" />
    <vehicle id="163" type="typeHuman" route="eastWest" depart="456" />
    <vehicle id="164" type="typeHuman" route="westEast" depart="461" />
    <vehicle id="165" type="typeHuman" route="eastSouth" depart="462" />
    <vehicle id="166" type="typeHuman" route="westSouth" depart="465" />
    <vehicle id="167" type="typeHuman" route="westEast" depart="467" />
    <vehicle id="168" type="typeHuman" route="eastWest" depart="473" />
    <vehicle id="169" type="typeHuman" route="westEast" depart="474" />
    <vehicle id="170" type="typeHuman" route="eastWest" depart="476" />
    <vehicle id="171" type="typeHuman" route="westEast" depart="478" />
    <vehicle id="172" type="typeHuman" route="westSouth" depart="480" />
    <vehicle id="173" type="typeHuman" route="westEast" depart="484" />
    <vehicle id="174" type="typeHuman" route="eastWest" depart="485" />
    <vehicle id="175" type="typeHuman" route="westSouth" depart="489" />
    <vehicle id="176" type="typeHuman" route="westEast" depart="493" />
    <vehicle id="177" type="typeHuman" route="southEast" depart="499" />
</routes>
