<routes>
    <vType id="typeHuman" accel="0.8" decel="4.5" sigma="0.5" length="5" minGap="2.5" maxSpeed="25" guiShape="passenger" color="1,1,0">
    </vType>

    <vType id="typeITSCV" accel="0.8" decel="4.5" sigma="0.5" length="5" minGap="2.5" maxSpeed="25" guiShape="passenger" color="1,0,0">
        <carFollowing-Krauss tau="1.0"/>
    </vType>

    <route id="eastSouth" edges="2:0 0:1 1:5 5:6" />
    <route id="eastWest" edges="2:0 0:1 1:3 3:7" />
    <route id="westSouth" edges="7:3 3:1 1:5 5:6" />
    <route id="westEast" edges="7:3 3:1 1:0 0:2" />
    <route id="southEast" edges="6:5 5:1 1:0 0:2" />
    <route id="southWest" edges="6:5 5:1 1:3 3:7" />
    
    <vehicle id="0" type="typeHuman" route="eastWest" depart="2" />
    <vehicle id="1" type="typeHuman" route="westEast" depart="4" />
    <vehicle id="2" type="typeHuman" route="eastSouth" depart="12" />
    <vehicle id="3" type="typeHuman" route="westEast" depart="12" />
    <vehicle id="4" type="typeHuman" route="eastWest" depart="14" />
    <vehicle id="5" type="typeHuman" route="eastWest" depart="16" />
    <vehicle id="6" type="typeHuman" route="westEast" depart="16" />
    <vehicle id="7" type="typeHuman" route="eastWest" depart="21" />
    <vehicle id="8" type="typeHuman" route="westEast" depart="23" />
    <vehicle id="9" type="typeHuman" route="westEast" depart="26" />
    <vehicle id="10" type="typeHuman" route="westEast" depart="31" />
    <vehicle id="11" type="typeHuman" route="westEast" depart="34" />
    <vehicle id="12" type="typeHuman" route="eastWest" depart="36" />
    <vehicle id="13" type="typeHuman" route="southEast" depart="49" />
    <vehicle id="14" type="typeHuman" route="eastWest" depart="50" />
    <vehicle id="15" type="typeHuman" route="eastWest" depart="52" />
    <vehicle id="16" type="typeHuman" route="eastSouth" depart="55" />
    <vehicle id="17" type="typeHuman" route="eastWest" depart="55" />
    <vehicle id="18" type="typeHuman" route="eastSouth" depart="56" />
    <vehicle id="19" type="typeHuman" route="westEast" depart="57" />
    <vehicle id="20" type="typeHuman" route="eastWest" depart="58" />
    <vehicle id="21" type="typeHuman" route="southEast" depart="75" />
    <vehicle id="22" type="typeHuman" route="eastWest" depart="77" />
    <vehicle id="23" type="typeHuman" route="westEast" depart="79" />
    <vehicle id="24" type="typeHuman" route="southWest" depart="79" />
    <vehicle id="25" type="typeHuman" route="westEast" depart="80" />
    <vehicle id="26" type="typeHuman" route="westSouth" depart="81" />
    <vehicle id="27" type="typeHuman" route="eastWest" depart="85" />
    <vehicle id="28" type="typeHuman" route="westEast" depart="85" />
    <vehicle id="29" type="typeHuman" route="eastWest" depart="86" />
    <vehicle id="30" type="typeHuman" route="southEast" depart="86" />
    <vehicle id="31" type="typeHuman" route="eastWest" depart="90" />
    <vehicle id="32" type="typeHuman" route="eastWest" depart="103" />
    <vehicle id="33" type="typeHuman" route="westSouth" depart="106" />
    <vehicle id="34" type="typeHuman" route="westEast" depart="110" />
    <vehicle id="35" type="typeHuman" route="southWest" depart="112" />
    <vehicle id="36" type="typeHuman" route="eastWest" depart="114" />
    <vehicle id="37" type="typeHuman" route="westEast" depart="121" />
    <vehicle id="38" type="typeHuman" route="westEast" depart="122" />
    <vehicle id="39" type="typeHuman" route="southWest" depart="123" />
    <vehicle id="40" type="typeHuman" route="eastWest" depart="124" />
    <vehicle id="41" type="typeHuman" route="westEast" depart="124" />
    <vehicle id="42" type="typeHuman" route="eastWest" depart="126" />
    <vehicle id="43" type="typeHuman" route="southEast" depart="127" />
    <vehicle id="44" type="typeHuman" route="eastWest" depart="130" />
    <vehicle id="45" type="typeHuman" route="westEast" depart="131" />
    <vehicle id="46" type="typeHuman" route="westSouth" depart="132" />
    <vehicle id="47" type="typeHuman" route="westEast" depart="136" />
    <vehicle id="48" type="typeHuman" route="westEast" depart="137" />
    <vehicle id="49" type="typeHuman" route="eastSouth" depart="139" />
    <vehicle id="50" type="typeHuman" route="eastWest" depart="139" />
    <vehicle id="51" type="typeHuman" route="eastWest" depart="143" />
    <vehicle id="52" type="typeHuman" route="westSouth" depart="148" />
    <vehicle id="53" type="typeHuman" route="eastWest" depart="150" />
    <vehicle id="54" type="typeHuman" route="westSouth" depart="150" />
    <vehicle id="55" type="typeHuman" route="westEast" depart="150" />
    <vehicle id="56" type="typeHuman" route="westEast" depart="159" />
    <vehicle id="57" type="typeHuman" route="southWest" depart="160" />
    <vehicle id="58" type="typeHuman" route="westEast" depart="161" />
    <vehicle id="59" type="typeHuman" route="eastWest" depart="165" />
    <vehicle id="60" type="typeHuman" route="eastWest" depart="171" />
    <vehicle id="61" type="typeHuman" route="westEast" depart="171" />
    <vehicle id="62" type="typeHuman" route="westEast" depart="175" />
    <vehicle id="63" type="typeHuman" route="eastWest" depart="177" />
    <vehicle id="64" type="typeHuman" route="westSouth" depart="180" />
    <vehicle id="65" type="typeHuman" route="southEast" depart="180" />
    <vehicle id="66" type="typeHuman" route="eastWest" depart="187" />
    <vehicle id="67" type="typeHuman" route="southWest" depart="188" />
    <vehicle id="68" type="typeHuman" route="eastWest" depart="190" />
    <vehicle id="69" type="typeHuman" route="eastWest" depart="199" />
    <vehicle id="70" type="typeHuman" route="southWest" depart="199" />
    <vehicle id="71" type="typeHuman" route="eastWest" depart="203" />
    <vehicle id="72" type="typeHuman" route="southEast" depart="203" />
    <vehicle id="73" type="typeHuman" route="westEast" depart="207" />
    <vehicle id="74" type="typeHuman" route="southWest" depart="207" />
    <vehicle id="75" type="typeHuman" route="westEast" depart="209" />
    <vehicle id="76" type="typeHuman" route="eastWest" depart="210" />
    <vehicle id="77" type="typeHuman" route="westEast" depart="216" />
    <vehicle id="78" type="typeHuman" route="westEast" depart="218" />
    <vehicle id="79" type="typeHuman" route="eastSouth" depart="219" />
    <vehicle id="80" type="typeHuman" route="westEast" depart="219" />
    <vehicle id="81" type="typeHuman" route="eastWest" depart="228" />
    <vehicle id="82" type="typeHuman" route="southWest" depart="229" />
    <vehicle id="83" type="typeHuman" route="eastSouth" depart="231" />
    <vehicle id="84" type="typeHuman" route="eastWest" depart="231" />
    <vehicle id="85" type="typeHuman" route="eastWest" depart="232" />
    <vehicle id="86" type="typeHuman" route="southEast" depart="237" />
    <vehicle id="87" type="typeHuman" route="westEast" depart="239" />
    <vehicle id="88" type="typeHuman" route="westEast" depart="245" />
    <vehicle id="89" type="typeHuman" route="westEast" depart="252" />
    <vehicle id="90" type="typeHuman" route="eastWest" depart="261" />
    <vehicle id="91" type="typeHuman" route="westEast" depart="271" />
    <vehicle id="92" type="typeHuman" route="westSouth" depart="274" />
    <vehicle id="93" type="typeHuman" route="westEast" depart="275" />
    <vehicle id="94" type="typeHuman" route="westEast" depart="277" />
    <vehicle id="95" type="typeHuman" route="southWest" depart="279" />
    <vehicle id="96" type="typeHuman" route="southEast" depart="280" />
    <vehicle id="97" type="typeHuman" route="eastSouth" depart="282" />
    <vehicle id="98" type="typeHuman" route="eastWest" depart="282" />
    <vehicle id="99" type="typeHuman" route="eastWest" depart="283" />
    <vehicle id="100" type="typeHuman" route="eastWest" depart="284" />
    <vehicle id="101" type="typeHuman" route="westEast" depart="287" />
    <vehicle id="102" type="typeHuman" route="eastWest" depart="290" />
    <vehicle id="103" type="typeHuman" route="westEast" depart="297" />
    <vehicle id="104" type="typeHuman" route="westEast" depart="299" />
    <vehicle id="105" type="typeHuman" route="southWest" depart="299" />
    <vehicle id="106" type="typeHuman" route="southEast" depart="300" />
    <vehicle id="107" type="typeHuman" route="westEast" depart="301" />
    <vehicle id="108" type="typeHuman" route="southEast" depart="301" />
    <vehicle id="109" type="typeHuman" route="westEast" depart="302" />
    <vehicle id="110" type="typeHuman" route="southWest" depart="305" />
    <vehicle id="111" type="typeHuman" route="southWest" depart="308" />
    <vehicle id="112" type="typeHuman" route="eastWest" depart="318" />
    <vehicle id="113" type="typeHuman" route="westEast" depart="326" />
    <vehicle id="114" type="typeHuman" route="eastWest" depart="327" />
    <vehicle id="115" type="typeHuman" route="eastWest" depart="331" />
    <vehicle id="116" type="typeHuman" route="westEast" depart="335" />
    <vehicle id="117" type="typeHuman" route="eastWest" depart="341" />
    <vehicle id="118" type="typeHuman" route="eastWest" depart="342" />
    <vehicle id="119" type="typeHuman" route="eastWest" depart="350" />
    <vehicle id="120" type="typeHuman" route="westEast" depart="351" />
    <vehicle id="121" type="typeHuman" route="westEast" depart="364" />
    <vehicle id="122" type="typeHuman" route="westEast" depart="367" />
    <vehicle id="123" type="typeHuman" route="eastWest" depart="370" />
    <vehicle id="124" type="typeHuman" route="eastWest" depart="372" />
    <vehicle id="125" type="typeHuman" route="westEast" depart="373" />
    <vehicle id="126" type="typeHuman" route="westEast" depart="397" />
    <vehicle id="127" type="typeHuman" route="eastWest" depart="405" />
    <vehicle id="128" type="typeHuman" route="eastSouth" depart="406" />
    <vehicle id="129" type="typeHuman" route="eastWest" depart="407" />
    <vehicle id="130" type="typeHuman" route="eastWest" depart="409" />
    <vehicle id="131" type="typeHuman" route="eastWest" depart="419" />
    <vehicle id="132" type="typeHuman" route="southWest" depart="419" />
    <vehicle id="133" type="typeHuman" route="eastWest" depart="420" />
    <vehicle id="134" type="typeHuman" route="westEast" depart="424" />
    <vehicle id="135" type="typeHuman" route="westEast" depart="432" />
    <vehicle id="136" type="typeHuman" route="southWest" depart="436" />
    <vehicle id="137" type="typeHuman" route="westSouth" depart="444" />
    <vehicle id="138" type="typeHuman" route="eastWest" depart="449" />
    <vehicle id="139" type="typeHuman" route="eastSouth" depart="454" />
    <vehicle id="140" type="typeHuman" route="westEast" depart="458" />
    <vehicle id="141" type="typeHuman" route="southEast" depart="463" />
    <vehicle id="142" type="typeHuman" route="eastWest" depart="466" />
    <vehicle id="143" type="typeHuman" route="eastSouth" depart="472" />
    <vehicle id="144" type="typeHuman" route="westEast" depart="479" />
    <vehicle id="145" type="typeHuman" route="eastWest" depart="484" />
    <vehicle id="146" type="typeHuman" route="eastWest" depart="485" />
    <vehicle id="147" type="typeHuman" route="eastSouth" depart="486" />
    <vehicle id="148" type="typeHuman" route="eastSouth" depart="491" />
    <vehicle id="149" type="typeHuman" route="westEast" depart="492" />
    <vehicle id="150" type="typeHuman" route="southWest" depart="494" />
</routes>
