<routes>
    <vType id="typeHuman" accel="0.8" decel="4.5" sigma="0.5" length="5" minGap="2.5" maxSpeed="25" guiShape="passenger" color="1,1,0">
    </vType>

    <vType id="typeITSCV" accel="0.8" decel="4.5" sigma="0.5" length="5" minGap="2.5" maxSpeed="25" guiShape="passenger" color="1,0,0">
        <carFollowing-Krauss tau="1.0"/>
    </vType>

    <route id="eastSouth" edges="2:0 0:1 1:5 5:6" />
    <route id="eastWest" edges="2:0 0:1 1:3 3:7" />
    <route id="westSouth" edges="7:3 3:1 1:5 5:6" />
    <route id="westEast" edges="7:3 3:1 1:0 0:2" />
    <route id="southEast" edges="6:5 5:1 1:0 0:2" />
    <route id="southWest" edges="6:5 5:1 1:3 3:7" />
    
    <vehicle id="0" type="typeITSCV" route="eastWest" depart="0" />
    <vehicle id="1" type="typeITSCV" route="westSouth" depart="1" />
    <vehicle id="2" type="typeHuman" route="southWest" depart="2" />
    <vehicle id="3" type="typeITSCV" route="eastWest" depart="14" />
    <vehicle id="4" type="typeHuman" route="eastSouth" depart="16" />
    <vehicle id="5" type="typeITSCV" route="southWest" depart="19" />
    <vehicle id="6" type="typeHuman" route="eastSouth" depart="20" />
    <vehicle id="7" type="typeITSCV" route="eastWest" depart="21" />
    <vehicle id="8" type="typeITSCV" route="eastWest" depart="26" />
    <vehicle id="9" type="typeITSCV" route="westEast" depart="40" />
    <vehicle id="10" type="typeHuman" route="eastWest" depart="43" />
    <vehicle id="11" type="typeHuman" route="westEast" depart="46" />
    <vehicle id="12" type="typeITSCV" route="westEast" depart="47" />
    <vehicle id="13" type="typeHuman" route="eastWest" depart="59" />
    <vehicle id="14" type="typeHuman" route="eastWest" depart="60" />
    <vehicle id="15" type="typeITSCV" route="eastWest" depart="63" />
    <vehicle id="16" type="typeITSCV" route="westEast" depart="66" />
    <vehicle id="17" type="typeHuman" route="westSouth" depart="68" />
    <vehicle id="18" type="typeITSCV" route="westEast" depart="69" />
    <vehicle id="19" type="typeITSCV" route="westEast" depart="73" />
    <vehicle id="20" type="typeITSCV" route="southWest" depart="76" />
    <vehicle id="21" type="typeITSCV" route="eastSouth" depart="80" />
    <vehicle id="22" type="typeHuman" route="westSouth" depart="80" />
    <vehicle id="23" type="typeHuman" route="westEast" depart="82" />
    <vehicle id="24" type="typeITSCV" route="eastSouth" depart="84" />
    <vehicle id="25" type="typeITSCV" route="westSouth" depart="86" />
    <vehicle id="26" type="typeHuman" route="eastWest" depart="87" />
    <vehicle id="27" type="typeHuman" route="eastWest" depart="95" />
</routes>
