<routes>
    <vType id="typeHuman" accel="0.8" decel="4.5" sigma="0.5" length="5" minGap="2.5" maxSpeed="25" guiShape="passenger" color="1,1,0">
    </vType>

    <vType id="typeITSCV" accel="0.8" decel="4.5" sigma="0.5" length="5" minGap="2.5" maxSpeed="25" guiShape="passenger" color="1,0,0">
        <carFollowing-Krauss tau="1.0"/>
    </vType>

    <route edges="6:4 4:0 0:10 10:11 " id="6:4TO10:11"/>
    <route edges="6:4 4:0 0:1 1:2 2:3 3:16 16:17 " id="6:4TO16:17"/>
    <route edges="6:4 4:0 0:1 1:2 2:3 3:5 5:7 " id="6:4TO5:7"/>
    <route edges="6:4 4:0 0:1 1:2 2:14 14:15 " id="6:4TO14:15"/>
    <route edges="6:4 4:0 0:8 8:9 " id="6:4TO8:9"/>
    <route edges="6:4 4:0 0:1 1:2 2:3 3:18 18:19 " id="6:4TO18:19"/>
    <route edges="6:4 4:0 0:1 1:12 12:13 " id="6:4TO12:13"/>
    <route edges="9:8 8:0 0:4 4:6 " id="9:8TO4:6"/>
    <route edges="9:8 8:0 0:1 1:2 2:3 3:16 16:17 " id="9:8TO16:17"/>
    <route edges="9:8 8:0 0:1 1:2 2:3 3:5 5:7 " id="9:8TO5:7"/>
    <route edges="9:8 8:0 0:1 1:2 2:14 14:15 " id="9:8TO14:15"/>
    <route edges="9:8 8:0 0:10 10:11 " id="9:8TO10:11"/>
    <route edges="9:8 8:0 0:1 1:2 2:3 3:18 18:19 " id="9:8TO18:19"/>
    <route edges="9:8 8:0 0:1 1:12 12:13 " id="9:8TO12:13"/>
    <route edges="11:10 10:0 0:4 4:6 " id="11:10TO4:6"/>
    <route edges="11:10 10:0 0:1 1:2 2:3 3:16 16:17 " id="11:10TO16:17"/>
    <route edges="11:10 10:0 0:1 1:2 2:3 3:5 5:7 " id="11:10TO5:7"/>
    <route edges="11:10 10:0 0:1 1:2 2:14 14:15 " id="11:10TO14:15"/>
    <route edges="11:10 10:0 0:8 8:9 " id="11:10TO8:9"/>
    <route edges="11:10 10:0 0:1 1:2 2:3 3:18 18:19 " id="11:10TO18:19"/>
    <route edges="11:10 10:0 0:1 1:12 12:13 " id="11:10TO12:13"/>
    <route edges="13:12 12:1 1:0 0:10 10:11 " id="13:12TO10:11"/>
    <route edges="13:12 12:1 1:2 2:14 14:15 " id="13:12TO14:15"/>
    <route edges="13:12 12:1 1:0 0:8 8:9 " id="13:12TO8:9"/>
    <route edges="13:12 12:1 1:2 2:3 3:16 16:17 " id="13:12TO16:17"/>
    <route edges="13:12 12:1 1:0 0:4 4:6 " id="13:12TO4:6"/>
    <route edges="13:12 12:1 1:2 2:3 3:5 5:7 " id="13:12TO5:7"/>
    <route edges="13:12 12:1 1:2 2:3 3:18 18:19 " id="13:12TO18:19"/>
    <route edges="15:14 14:2 2:1 1:12 12:13 " id="15:14TO12:13"/>
    <route edges="15:14 14:2 2:3 3:18 18:19 " id="15:14TO18:19"/>
    <route edges="15:14 14:2 2:3 3:16 16:17 " id="15:14TO16:17"/>
    <route edges="15:14 14:2 2:3 3:5 5:7 " id="15:14TO5:7"/>
    <route edges="15:14 14:2 2:1 1:0 0:8 8:9 " id="15:14TO8:9"/>
    <route edges="15:14 14:2 2:1 1:0 0:10 10:11 " id="15:14TO10:11"/>
    <route edges="15:14 14:2 2:1 1:0 0:4 4:6 " id="15:14TO4:6"/>
    <route edges="17:16 16:3 3:2 2:1 1:0 0:8 8:9 " id="17:16TO8:9"/>
    <route edges="17:16 16:3 3:5 5:7 " id="17:16TO5:7"/>
    <route edges="17:16 16:3 3:2 2:1 1:0 0:10 10:11 " id="17:16TO10:11"/>
    <route edges="17:16 16:3 3:2 2:1 1:0 0:4 4:6 " id="17:16TO4:6"/>
    <route edges="17:16 16:3 3:18 18:19 " id="17:16TO18:19"/>
    <route edges="17:16 16:3 3:2 2:1 1:12 12:13 " id="17:16TO12:13"/>
    <route edges="17:16 16:3 3:2 2:14 14:15 " id="17:16TO14:15"/>
    <route edges="19:18 18:3 3:2 2:1 1:0 0:8 8:9 " id="19:18TO8:9"/>
    <route edges="19:18 18:3 3:5 5:7 " id="19:18TO5:7"/>
    <route edges="19:18 18:3 3:2 2:1 1:0 0:10 10:11 " id="19:18TO10:11"/>
    <route edges="19:18 18:3 3:2 2:1 1:0 0:4 4:6 " id="19:18TO4:6"/>
    <route edges="19:18 18:3 3:16 16:17 " id="19:18TO16:17"/>
    <route edges="19:18 18:3 3:2 2:1 1:12 12:13 " id="19:18TO12:13"/>
    <route edges="19:18 18:3 3:2 2:14 14:15 " id="19:18TO14:15"/>
    <route edges="7:5 5:3 3:18 18:19 " id="7:5TO18:19"/>
    <route edges="7:5 5:3 3:2 2:1 1:0 0:8 8:9 " id="7:5TO8:9"/>
    <route edges="7:5 5:3 3:2 2:1 1:0 0:4 4:6 " id="7:5TO4:6"/>
    <route edges="7:5 5:3 3:2 2:1 1:12 12:13 " id="7:5TO12:13"/>
    <route edges="7:5 5:3 3:16 16:17 " id="7:5TO16:17"/>
    <route edges="7:5 5:3 3:2 2:1 1:0 0:10 10:11 " id="7:5TO10:11"/>
    <route edges="7:5 5:3 3:2 2:14 14:15 " id="7:5TO14:15"/>
    
    <vehicle id="0" type="typeITSCV" route="6:4TO16:17" depart="0" />
    <vehicle id="1" type="typeITSCV" route="11:10TO8:9" depart="0" />
    <vehicle id="2" type="typeITSCV" route="19:18TO8:9" depart="1" />
    <vehicle id="3" type="typeITSCV" route="9:8TO5:7" depart="2" />
    <vehicle id="4" type="typeITSCV" route="17:16TO14:15" depart="4" />
    <vehicle id="5" type="typeITSCV" route="6:4TO18:19" depart="5" />
    <vehicle id="6" type="typeITSCV" route="9:8TO10:11" depart="5" />
    <vehicle id="7" type="typeITSCV" route="7:5TO14:15" depart="5" />
    <vehicle id="8" type="typeITSCV" route="13:12TO16:17" depart="6" />
    <vehicle id="9" type="typeITSCV" route="7:5TO18:19" depart="6" />
    <vehicle id="10" type="typeITSCV" route="13:12TO4:6" depart="7" />
    <vehicle id="11" type="typeITSCV" route="13:12TO14:15" depart="8" />
    <vehicle id="12" type="typeITSCV" route="6:4TO5:7" depart="9" />
    <vehicle id="13" type="typeITSCV" route="13:12TO4:6" depart="10" />
    <vehicle id="14" type="typeITSCV" route="7:5TO10:11" depart="11" />
    <vehicle id="15" type="typeITSCV" route="7:5TO12:13" depart="14" />
    <vehicle id="16" type="typeITSCV" route="13:12TO5:7" depart="15" />
    <vehicle id="17" type="typeITSCV" route="7:5TO16:17" depart="16" />
    <vehicle id="18" type="typeITSCV" route="6:4TO10:11" depart="18" />
    <vehicle id="19" type="typeITSCV" route="6:4TO12:13" depart="18" />
    <vehicle id="20" type="typeITSCV" route="7:5TO18:19" depart="19" />
    <vehicle id="21" type="typeITSCV" route="7:5TO10:11" depart="19" />
    <vehicle id="22" type="typeITSCV" route="13:12TO5:7" depart="20" />
    <vehicle id="23" type="typeITSCV" route="15:14TO5:7" depart="20" />
    <vehicle id="24" type="typeITSCV" route="7:5TO18:19" depart="20" />
    <vehicle id="25" type="typeITSCV" route="6:4TO8:9" depart="24" />
    <vehicle id="26" type="typeITSCV" route="13:12TO10:11" depart="24" />
    <vehicle id="27" type="typeITSCV" route="6:4TO5:7" depart="25" />
    <vehicle id="28" type="typeITSCV" route="6:4TO18:19" depart="29" />
    <vehicle id="29" type="typeITSCV" route="19:18TO8:9" depart="31" />
    <vehicle id="30" type="typeITSCV" route="11:10TO4:6" depart="32" />
    <vehicle id="31" type="typeITSCV" route="7:5TO4:6" depart="32" />
    <vehicle id="32" type="typeITSCV" route="6:4TO14:15" depart="34" />
    <vehicle id="33" type="typeITSCV" route="13:12TO16:17" depart="34" />
    <vehicle id="34" type="typeITSCV" route="6:4TO10:11" depart="36" />
    <vehicle id="35" type="typeITSCV" route="7:5TO12:13" depart="36" />
    <vehicle id="36" type="typeITSCV" route="6:4TO8:9" depart="37" />
    <vehicle id="37" type="typeITSCV" route="9:8TO10:11" depart="37" />
    <vehicle id="38" type="typeITSCV" route="9:8TO18:19" depart="37" />
    <vehicle id="39" type="typeITSCV" route="19:18TO8:9" depart="37" />
    <vehicle id="40" type="typeITSCV" route="6:4TO8:9" depart="38" />
    <vehicle id="41" type="typeITSCV" route="7:5TO12:13" depart="38" />
    <vehicle id="42" type="typeITSCV" route="6:4TO8:9" depart="39" />
    <vehicle id="43" type="typeITSCV" route="19:18TO12:13" depart="40" />
    <vehicle id="44" type="typeITSCV" route="6:4TO5:7" depart="41" />
    <vehicle id="45" type="typeITSCV" route="15:14TO18:19" depart="42" />
    <vehicle id="46" type="typeITSCV" route="6:4TO12:13" depart="44" />
    <vehicle id="47" type="typeITSCV" route="15:14TO8:9" depart="44" />
    <vehicle id="48" type="typeITSCV" route="7:5TO4:6" depart="44" />
    <vehicle id="49" type="typeITSCV" route="7:5TO14:15" depart="44" />
    <vehicle id="50" type="typeITSCV" route="11:10TO14:15" depart="45" />
    <vehicle id="51" type="typeITSCV" route="6:4TO8:9" depart="47" />
    <vehicle id="52" type="typeITSCV" route="7:5TO4:6" depart="47" />
    <vehicle id="53" type="typeITSCV" route="9:8TO4:6" depart="48" />
    <vehicle id="54" type="typeITSCV" route="9:8TO12:13" depart="48" />
    <vehicle id="55" type="typeITSCV" route="13:12TO5:7" depart="49" />
    <vehicle id="56" type="typeITSCV" route="7:5TO8:9" depart="49" />
    <vehicle id="57" type="typeITSCV" route="6:4TO10:11" depart="50" />
    <vehicle id="58" type="typeITSCV" route="7:5TO4:6" depart="50" />
    <vehicle id="59" type="typeITSCV" route="9:8TO5:7" depart="51" />
    <vehicle id="60" type="typeITSCV" route="7:5TO4:6" depart="51" />
    <vehicle id="61" type="typeITSCV" route="11:10TO14:15" depart="52" />
    <vehicle id="62" type="typeITSCV" route="7:5TO14:15" depart="54" />
    <vehicle id="63" type="typeITSCV" route="6:4TO18:19" depart="56" />
    <vehicle id="64" type="typeITSCV" route="9:8TO4:6" depart="56" />
    <vehicle id="65" type="typeITSCV" route="9:8TO14:15" depart="56" />
    <vehicle id="66" type="typeITSCV" route="7:5TO10:11" depart="56" />
    <vehicle id="67" type="typeITSCV" route="7:5TO10:11" depart="57" />
    <vehicle id="68" type="typeITSCV" route="7:5TO18:19" depart="58" />
    <vehicle id="69" type="typeITSCV" route="6:4TO10:11" depart="59" />
    <vehicle id="70" type="typeITSCV" route="15:14TO8:9" depart="59" />
    <vehicle id="71" type="typeITSCV" route="15:14TO16:17" depart="61" />
    <vehicle id="72" type="typeITSCV" route="7:5TO14:15" depart="63" />
    <vehicle id="73" type="typeITSCV" route="7:5TO14:15" depart="64" />
    <vehicle id="74" type="typeITSCV" route="13:12TO4:6" depart="65" />
    <vehicle id="75" type="typeITSCV" route="7:5TO4:6" depart="65" />
    <vehicle id="76" type="typeITSCV" route="15:14TO18:19" depart="66" />
    <vehicle id="77" type="typeITSCV" route="11:10TO16:17" depart="67" />
    <vehicle id="78" type="typeITSCV" route="7:5TO14:15" depart="69" />
    <vehicle id="79" type="typeITSCV" route="15:14TO4:6" depart="70" />
    <vehicle id="80" type="typeITSCV" route="11:10TO16:17" depart="71" />
    <vehicle id="81" type="typeITSCV" route="19:18TO10:11" depart="71" />
    <vehicle id="82" type="typeITSCV" route="17:16TO4:6" depart="72" />
    <vehicle id="83" type="typeITSCV" route="17:16TO10:11" depart="73" />
    <vehicle id="84" type="typeITSCV" route="9:8TO14:15" depart="76" />
    <vehicle id="85" type="typeITSCV" route="11:10TO4:6" depart="76" />
    <vehicle id="86" type="typeITSCV" route="11:10TO14:15" depart="76" />
    <vehicle id="87" type="typeITSCV" route="11:10TO12:13" depart="76" />
    <vehicle id="88" type="typeITSCV" route="7:5TO4:6" depart="77" />
    <vehicle id="89" type="typeITSCV" route="17:16TO12:13" depart="78" />
    <vehicle id="90" type="typeITSCV" route="11:10TO5:7" depart="81" />
    <vehicle id="91" type="typeITSCV" route="6:4TO8:9" depart="82" />
    <vehicle id="92" type="typeITSCV" route="19:18TO16:17" depart="82" />
    <vehicle id="93" type="typeITSCV" route="7:5TO4:6" depart="82" />
    <vehicle id="94" type="typeITSCV" route="13:12TO18:19" depart="86" />
    <vehicle id="95" type="typeITSCV" route="19:18TO8:9" depart="87" />
    <vehicle id="96" type="typeITSCV" route="7:5TO12:13" depart="87" />
    <vehicle id="97" type="typeITSCV" route="6:4TO5:7" depart="88" />
    <vehicle id="98" type="typeITSCV" route="6:4TO12:13" depart="88" />
    <vehicle id="99" type="typeITSCV" route="6:4TO16:17" depart="89" />
    <vehicle id="100" type="typeITSCV" route="11:10TO8:9" depart="89" />
    <vehicle id="101" type="typeITSCV" route="15:14TO5:7" depart="91" />
    <vehicle id="102" type="typeITSCV" route="19:18TO12:13" depart="91" />
    <vehicle id="103" type="typeITSCV" route="15:14TO12:13" depart="94" />
    <vehicle id="104" type="typeITSCV" route="6:4TO10:11" depart="95" />
    <vehicle id="105" type="typeITSCV" route="6:4TO12:13" depart="95" />
    <vehicle id="106" type="typeITSCV" route="11:10TO8:9" depart="96" />
    <vehicle id="107" type="typeITSCV" route="6:4TO5:7" depart="97" />
    <vehicle id="108" type="typeITSCV" route="6:4TO8:9" depart="98" />
    <vehicle id="109" type="typeITSCV" route="6:4TO18:19" depart="98" />
    <vehicle id="110" type="typeITSCV" route="13:12TO5:7" depart="98" />
    <vehicle id="111" type="typeITSCV" route="6:4TO8:9" depart="100" />
    <vehicle id="112" type="typeITSCV" route="11:10TO5:7" depart="100" />
    <vehicle id="113" type="typeITSCV" route="7:5TO10:11" depart="102" />
    <vehicle id="114" type="typeITSCV" route="15:14TO18:19" depart="104" />
    <vehicle id="115" type="typeITSCV" route="13:12TO5:7" depart="105" />
    <vehicle id="116" type="typeITSCV" route="6:4TO10:11" depart="106" />
    <vehicle id="117" type="typeITSCV" route="15:14TO12:13" depart="114" />
    <vehicle id="118" type="typeITSCV" route="6:4TO12:13" depart="116" />
    <vehicle id="119" type="typeITSCV" route="11:10TO18:19" depart="116" />
    <vehicle id="120" type="typeITSCV" route="9:8TO4:6" depart="118" />
    <vehicle id="121" type="typeITSCV" route="7:5TO8:9" depart="118" />
    <vehicle id="122" type="typeITSCV" route="7:5TO14:15" depart="119" />
    <vehicle id="123" type="typeITSCV" route="6:4TO8:9" depart="120" />
    <vehicle id="124" type="typeITSCV" route="11:10TO4:6" depart="121" />
    <vehicle id="125" type="typeITSCV" route="17:16TO10:11" depart="121" />
    <vehicle id="126" type="typeITSCV" route="7:5TO12:13" depart="121" />
    <vehicle id="127" type="typeITSCV" route="6:4TO18:19" depart="125" />
    <vehicle id="128" type="typeITSCV" route="19:18TO16:17" depart="125" />
    <vehicle id="129" type="typeITSCV" route="7:5TO8:9" depart="125" />
    <vehicle id="130" type="typeITSCV" route="15:14TO18:19" depart="126" />
    <vehicle id="131" type="typeITSCV" route="7:5TO4:6" depart="126" />
    <vehicle id="132" type="typeITSCV" route="7:5TO14:15" depart="126" />
    <vehicle id="133" type="typeITSCV" route="6:4TO16:17" depart="128" />
    <vehicle id="134" type="typeITSCV" route="6:4TO8:9" depart="128" />
    <vehicle id="135" type="typeITSCV" route="7:5TO12:13" depart="128" />
    <vehicle id="136" type="typeITSCV" route="15:14TO5:7" depart="129" />
    <vehicle id="137" type="typeITSCV" route="6:4TO16:17" depart="130" />
    <vehicle id="138" type="typeITSCV" route="13:12TO18:19" depart="132" />
    <vehicle id="139" type="typeITSCV" route="6:4TO14:15" depart="133" />
    <vehicle id="140" type="typeITSCV" route="9:8TO10:11" depart="134" />
    <vehicle id="141" type="typeITSCV" route="9:8TO10:11" depart="135" />
    <vehicle id="142" type="typeITSCV" route="19:18TO12:13" depart="135" />
    <vehicle id="143" type="typeITSCV" route="19:18TO8:9" depart="137" />
    <vehicle id="144" type="typeITSCV" route="17:16TO10:11" depart="138" />
    <vehicle id="145" type="typeITSCV" route="13:12TO14:15" depart="139" />
    <vehicle id="146" type="typeITSCV" route="7:5TO12:13" depart="139" />
    <vehicle id="147" type="typeITSCV" route="15:14TO16:17" depart="140" />
    <vehicle id="148" type="typeITSCV" route="15:14TO4:6" depart="140" />
    <vehicle id="149" type="typeITSCV" route="17:16TO18:19" depart="142" />
    <vehicle id="150" type="typeITSCV" route="6:4TO18:19" depart="144" />
    <vehicle id="151" type="typeITSCV" route="6:4TO12:13" depart="145" />
    <vehicle id="152" type="typeITSCV" route="17:16TO5:7" depart="145" />
    <vehicle id="153" type="typeITSCV" route="17:16TO14:15" depart="146" />
    <vehicle id="154" type="typeITSCV" route="9:8TO18:19" depart="147" />
    <vehicle id="155" type="typeITSCV" route="7:5TO12:13" depart="148" />
    <vehicle id="156" type="typeITSCV" route="6:4TO16:17" depart="151" />
    <vehicle id="157" type="typeITSCV" route="15:14TO4:6" depart="152" />
    <vehicle id="158" type="typeITSCV" route="7:5TO8:9" depart="153" />
    <vehicle id="159" type="typeITSCV" route="7:5TO14:15" depart="154" />
    <vehicle id="160" type="typeITSCV" route="17:16TO10:11" depart="155" />
    <vehicle id="161" type="typeITSCV" route="6:4TO14:15" depart="156" />
    <vehicle id="162" type="typeITSCV" route="15:14TO8:9" depart="156" />
    <vehicle id="163" type="typeITSCV" route="15:14TO12:13" depart="157" />
    <vehicle id="164" type="typeITSCV" route="9:8TO5:7" depart="159" />
    <vehicle id="165" type="typeITSCV" route="11:10TO12:13" depart="160" />
    <vehicle id="166" type="typeITSCV" route="17:16TO18:19" depart="160" />
    <vehicle id="167" type="typeITSCV" route="7:5TO14:15" depart="160" />
    <vehicle id="168" type="typeITSCV" route="6:4TO10:11" depart="161" />
    <vehicle id="169" type="typeITSCV" route="7:5TO12:13" depart="161" />
    <vehicle id="170" type="typeITSCV" route="17:16TO8:9" depart="163" />
    <vehicle id="171" type="typeITSCV" route="7:5TO18:19" depart="163" />
    <vehicle id="172" type="typeITSCV" route="7:5TO14:15" depart="164" />
    <vehicle id="173" type="typeITSCV" route="6:4TO5:7" depart="166" />
    <vehicle id="174" type="typeITSCV" route="6:4TO14:15" depart="166" />
    <vehicle id="175" type="typeITSCV" route="7:5TO16:17" depart="166" />
    <vehicle id="176" type="typeITSCV" route="6:4TO10:11" depart="168" />
    <vehicle id="177" type="typeITSCV" route="15:14TO18:19" depart="168" />
    <vehicle id="178" type="typeITSCV" route="6:4TO5:7" depart="169" />
    <vehicle id="179" type="typeITSCV" route="6:4TO8:9" depart="170" />
    <vehicle id="180" type="typeITSCV" route="9:8TO10:11" depart="170" />
    <vehicle id="181" type="typeITSCV" route="6:4TO8:9" depart="171" />
    <vehicle id="182" type="typeITSCV" route="11:10TO18:19" depart="171" />
    <vehicle id="183" type="typeITSCV" route="19:18TO16:17" depart="171" />
    <vehicle id="184" type="typeITSCV" route="7:5TO18:19" depart="171" />
    <vehicle id="185" type="typeITSCV" route="15:14TO10:11" depart="172" />
    <vehicle id="186" type="typeITSCV" route="6:4TO16:17" depart="175" />
    <vehicle id="187" type="typeITSCV" route="6:4TO14:15" depart="177" />
    <vehicle id="188" type="typeITSCV" route="7:5TO8:9" depart="177" />
    <vehicle id="189" type="typeITSCV" route="6:4TO14:15" depart="182" />
    <vehicle id="190" type="typeITSCV" route="9:8TO4:6" depart="182" />
    <vehicle id="191" type="typeITSCV" route="19:18TO14:15" depart="182" />
    <vehicle id="192" type="typeITSCV" route="6:4TO12:13" depart="183" />
    <vehicle id="193" type="typeITSCV" route="6:4TO18:19" depart="185" />
    <vehicle id="194" type="typeITSCV" route="9:8TO16:17" depart="186" />
    <vehicle id="195" type="typeITSCV" route="6:4TO18:19" depart="187" />
    <vehicle id="196" type="typeITSCV" route="19:18TO5:7" depart="188" />
    <vehicle id="197" type="typeITSCV" route="19:18TO4:6" depart="188" />
    <vehicle id="198" type="typeITSCV" route="7:5TO4:6" depart="188" />
    <vehicle id="199" type="typeITSCV" route="7:5TO10:11" depart="189" />
    <vehicle id="200" type="typeITSCV" route="6:4TO18:19" depart="191" />
    <vehicle id="201" type="typeITSCV" route="11:10TO14:15" depart="191" />
    <vehicle id="202" type="typeITSCV" route="9:8TO16:17" depart="192" />
    <vehicle id="203" type="typeITSCV" route="11:10TO18:19" depart="193" />
    <vehicle id="204" type="typeITSCV" route="15:14TO4:6" depart="195" />
    <vehicle id="205" type="typeITSCV" route="7:5TO14:15" depart="195" />
    <vehicle id="206" type="typeITSCV" route="6:4TO8:9" depart="196" />
    <vehicle id="207" type="typeITSCV" route="17:16TO18:19" depart="197" />
    <vehicle id="208" type="typeITSCV" route="7:5TO12:13" depart="197" />
    <vehicle id="209" type="typeITSCV" route="7:5TO4:6" depart="198" />
</routes>
