<configuration>
    <input>
        <node-files value="corridor.nod.xml"/>
        <edge-files value="corridor.edg.xml"/>
        <type-files value="corridor.typ.xml"/>
    </input>

    <output>
        <output-file value="corridor.net.xml"/>
    </output>
    
    <processing>
       <no-turnarounds value="true"/>
    </processing>

    <report>
        <verbose value="true"/>
    </report>

</configuration>
