<routes>
    <vType id="typeHuman" accel="0.8" decel="4.5" sigma="0.5" length="5" minGap="2.5" maxSpeed="25" guiShape="passenger" color="1,1,0">
    </vType>

    <vType id="typeITSCV" accel="0.8" decel="4.5" sigma="0.5" length="5" minGap="2.5" maxSpeed="25" guiShape="passenger" color="1,0,0">
        <carFollowing-Krauss tau="1.0"/>
    </vType>

    <route edges="6:4 4:0 0:10 10:11 " id="6:4TO10:11"/>
    <route edges="6:4 4:0 0:1 1:2 2:3 3:16 16:17 " id="6:4TO16:17"/>
    <route edges="6:4 4:0 0:1 1:2 2:3 3:5 5:7 " id="6:4TO5:7"/>
    <route edges="6:4 4:0 0:1 1:2 2:14 14:15 " id="6:4TO14:15"/>
    <route edges="6:4 4:0 0:8 8:9 " id="6:4TO8:9"/>
    <route edges="6:4 4:0 0:1 1:2 2:3 3:18 18:19 " id="6:4TO18:19"/>
    <route edges="6:4 4:0 0:1 1:12 12:13 " id="6:4TO12:13"/>
    <route edges="9:8 8:0 0:4 4:6 " id="9:8TO4:6"/>
    <route edges="9:8 8:0 0:1 1:2 2:3 3:16 16:17 " id="9:8TO16:17"/>
    <route edges="9:8 8:0 0:1 1:2 2:3 3:5 5:7 " id="9:8TO5:7"/>
    <route edges="9:8 8:0 0:1 1:2 2:14 14:15 " id="9:8TO14:15"/>
    <route edges="9:8 8:0 0:10 10:11 " id="9:8TO10:11"/>
    <route edges="9:8 8:0 0:1 1:2 2:3 3:18 18:19 " id="9:8TO18:19"/>
    <route edges="9:8 8:0 0:1 1:12 12:13 " id="9:8TO12:13"/>
    <route edges="11:10 10:0 0:4 4:6 " id="11:10TO4:6"/>
    <route edges="11:10 10:0 0:1 1:2 2:3 3:16 16:17 " id="11:10TO16:17"/>
    <route edges="11:10 10:0 0:1 1:2 2:3 3:5 5:7 " id="11:10TO5:7"/>
    <route edges="11:10 10:0 0:1 1:2 2:14 14:15 " id="11:10TO14:15"/>
    <route edges="11:10 10:0 0:8 8:9 " id="11:10TO8:9"/>
    <route edges="11:10 10:0 0:1 1:2 2:3 3:18 18:19 " id="11:10TO18:19"/>
    <route edges="11:10 10:0 0:1 1:12 12:13 " id="11:10TO12:13"/>
    <route edges="13:12 12:1 1:0 0:10 10:11 " id="13:12TO10:11"/>
    <route edges="13:12 12:1 1:2 2:14 14:15 " id="13:12TO14:15"/>
    <route edges="13:12 12:1 1:0 0:8 8:9 " id="13:12TO8:9"/>
    <route edges="13:12 12:1 1:2 2:3 3:16 16:17 " id="13:12TO16:17"/>
    <route edges="13:12 12:1 1:0 0:4 4:6 " id="13:12TO4:6"/>
    <route edges="13:12 12:1 1:2 2:3 3:5 5:7 " id="13:12TO5:7"/>
    <route edges="13:12 12:1 1:2 2:3 3:18 18:19 " id="13:12TO18:19"/>
    <route edges="15:14 14:2 2:1 1:12 12:13 " id="15:14TO12:13"/>
    <route edges="15:14 14:2 2:3 3:18 18:19 " id="15:14TO18:19"/>
    <route edges="15:14 14:2 2:3 3:16 16:17 " id="15:14TO16:17"/>
    <route edges="15:14 14:2 2:3 3:5 5:7 " id="15:14TO5:7"/>
    <route edges="15:14 14:2 2:1 1:0 0:8 8:9 " id="15:14TO8:9"/>
    <route edges="15:14 14:2 2:1 1:0 0:10 10:11 " id="15:14TO10:11"/>
    <route edges="15:14 14:2 2:1 1:0 0:4 4:6 " id="15:14TO4:6"/>
    <route edges="17:16 16:3 3:2 2:1 1:0 0:8 8:9 " id="17:16TO8:9"/>
    <route edges="17:16 16:3 3:5 5:7 " id="17:16TO5:7"/>
    <route edges="17:16 16:3 3:2 2:1 1:0 0:10 10:11 " id="17:16TO10:11"/>
    <route edges="17:16 16:3 3:2 2:1 1:0 0:4 4:6 " id="17:16TO4:6"/>
    <route edges="17:16 16:3 3:18 18:19 " id="17:16TO18:19"/>
    <route edges="17:16 16:3 3:2 2:1 1:12 12:13 " id="17:16TO12:13"/>
    <route edges="17:16 16:3 3:2 2:14 14:15 " id="17:16TO14:15"/>
    <route edges="19:18 18:3 3:2 2:1 1:0 0:8 8:9 " id="19:18TO8:9"/>
    <route edges="19:18 18:3 3:5 5:7 " id="19:18TO5:7"/>
    <route edges="19:18 18:3 3:2 2:1 1:0 0:10 10:11 " id="19:18TO10:11"/>
    <route edges="19:18 18:3 3:2 2:1 1:0 0:4 4:6 " id="19:18TO4:6"/>
    <route edges="19:18 18:3 3:16 16:17 " id="19:18TO16:17"/>
    <route edges="19:18 18:3 3:2 2:1 1:12 12:13 " id="19:18TO12:13"/>
    <route edges="19:18 18:3 3:2 2:14 14:15 " id="19:18TO14:15"/>
    <route edges="7:5 5:3 3:18 18:19 " id="7:5TO18:19"/>
    <route edges="7:5 5:3 3:2 2:1 1:0 0:8 8:9 " id="7:5TO8:9"/>
    <route edges="7:5 5:3 3:2 2:1 1:0 0:4 4:6 " id="7:5TO4:6"/>
    <route edges="7:5 5:3 3:2 2:1 1:12 12:13 " id="7:5TO12:13"/>
    <route edges="7:5 5:3 3:16 16:17 " id="7:5TO16:17"/>
    <route edges="7:5 5:3 3:2 2:1 1:0 0:10 10:11 " id="7:5TO10:11"/>
    <route edges="7:5 5:3 3:2 2:14 14:15 " id="7:5TO14:15"/>
    
    <vehicle id="0" type="typeITSCV" route="19:18TO5:7" depart="5" />
    <vehicle id="1" type="typeITSCV" route="6:4TO14:15" depart="7" />
    <vehicle id="2" type="typeITSCV" route="9:8TO14:15" depart="8" />
    <vehicle id="3" type="typeITSCV" route="15:14TO5:7" depart="10" />
    <vehicle id="4" type="typeITSCV" route="13:12TO16:17" depart="17" />
    <vehicle id="5" type="typeITSCV" route="7:5TO12:13" depart="18" />
    <vehicle id="6" type="typeITSCV" route="6:4TO5:7" depart="21" />
    <vehicle id="7" type="typeITSCV" route="19:18TO12:13" depart="21" />
    <vehicle id="8" type="typeITSCV" route="17:16TO4:6" depart="23" />
    <vehicle id="9" type="typeITSCV" route="15:14TO16:17" depart="30" />
    <vehicle id="10" type="typeITSCV" route="17:16TO10:11" depart="36" />
    <vehicle id="11" type="typeITSCV" route="19:18TO8:9" depart="40" />
    <vehicle id="12" type="typeITSCV" route="19:18TO12:13" depart="44" />
    <vehicle id="13" type="typeITSCV" route="7:5TO8:9" depart="47" />
    <vehicle id="14" type="typeITSCV" route="7:5TO8:9" depart="53" />
    <vehicle id="15" type="typeITSCV" route="7:5TO12:13" depart="55" />
    <vehicle id="16" type="typeITSCV" route="15:14TO4:6" depart="58" />
    <vehicle id="17" type="typeITSCV" route="11:10TO14:15" depart="65" />
    <vehicle id="18" type="typeITSCV" route="9:8TO16:17" depart="66" />
    <vehicle id="19" type="typeITSCV" route="7:5TO10:11" depart="67" />
    <vehicle id="20" type="typeITSCV" route="7:5TO16:17" depart="69" />
    <vehicle id="21" type="typeITSCV" route="6:4TO14:15" depart="70" />
    <vehicle id="22" type="typeITSCV" route="11:10TO16:17" depart="70" />
    <vehicle id="23" type="typeITSCV" route="6:4TO5:7" depart="78" />
    <vehicle id="24" type="typeITSCV" route="7:5TO16:17" depart="81" />
    <vehicle id="25" type="typeITSCV" route="7:5TO16:17" depart="84" />
    <vehicle id="26" type="typeITSCV" route="6:4TO10:11" depart="88" />
    <vehicle id="27" type="typeITSCV" route="7:5TO16:17" depart="88" />
    <vehicle id="28" type="typeITSCV" route="19:18TO8:9" depart="91" />
    <vehicle id="29" type="typeITSCV" route="13:12TO5:7" depart="92" />
    <vehicle id="30" type="typeITSCV" route="19:18TO5:7" depart="93" />
    <vehicle id="31" type="typeITSCV" route="19:18TO4:6" depart="93" />
    <vehicle id="32" type="typeITSCV" route="6:4TO8:9" depart="107" />
    <vehicle id="33" type="typeITSCV" route="7:5TO14:15" depart="107" />
    <vehicle id="34" type="typeITSCV" route="19:18TO16:17" depart="111" />
    <vehicle id="35" type="typeITSCV" route="13:12TO8:9" depart="121" />
    <vehicle id="36" type="typeITSCV" route="6:4TO8:9" depart="122" />
    <vehicle id="37" type="typeITSCV" route="19:18TO5:7" depart="123" />
    <vehicle id="38" type="typeITSCV" route="6:4TO16:17" depart="125" />
    <vehicle id="39" type="typeITSCV" route="17:16TO4:6" depart="125" />
    <vehicle id="40" type="typeITSCV" route="7:5TO12:13" depart="125" />
    <vehicle id="41" type="typeITSCV" route="6:4TO16:17" depart="132" />
    <vehicle id="42" type="typeITSCV" route="9:8TO16:17" depart="132" />
    <vehicle id="43" type="typeITSCV" route="7:5TO18:19" depart="134" />
    <vehicle id="44" type="typeITSCV" route="19:18TO8:9" depart="139" />
    <vehicle id="45" type="typeITSCV" route="6:4TO5:7" depart="140" />
    <vehicle id="46" type="typeITSCV" route="17:16TO5:7" depart="148" />
    <vehicle id="47" type="typeITSCV" route="7:5TO4:6" depart="149" />
    <vehicle id="48" type="typeITSCV" route="19:18TO14:15" depart="151" />
    <vehicle id="49" type="typeITSCV" route="19:18TO16:17" depart="155" />
    <vehicle id="50" type="typeITSCV" route="6:4TO14:15" depart="160" />
    <vehicle id="51" type="typeITSCV" route="7:5TO4:6" depart="164" />
    <vehicle id="52" type="typeITSCV" route="11:10TO16:17" depart="167" />
    <vehicle id="53" type="typeITSCV" route="7:5TO10:11" depart="177" />
    <vehicle id="54" type="typeITSCV" route="7:5TO4:6" depart="180" />
    <vehicle id="55" type="typeITSCV" route="6:4TO8:9" depart="196" />
    <vehicle id="56" type="typeITSCV" route="11:10TO14:15" depart="199" />
    <vehicle id="57" type="typeITSCV" route="19:18TO12:13" depart="199" />
    <vehicle id="58" type="typeITSCV" route="7:5TO12:13" depart="200" />
    <vehicle id="59" type="typeITSCV" route="6:4TO5:7" depart="203" />
    <vehicle id="60" type="typeITSCV" route="6:4TO5:7" depart="206" />
    <vehicle id="61" type="typeITSCV" route="19:18TO12:13" depart="207" />
    <vehicle id="62" type="typeITSCV" route="6:4TO16:17" depart="208" />
    <vehicle id="63" type="typeITSCV" route="6:4TO12:13" depart="208" />
    <vehicle id="64" type="typeITSCV" route="19:18TO10:11" depart="208" />
    <vehicle id="65" type="typeITSCV" route="6:4TO10:11" depart="209" />
    <vehicle id="66" type="typeITSCV" route="7:5TO4:6" depart="216" />
    <vehicle id="67" type="typeITSCV" route="13:12TO4:6" depart="218" />
    <vehicle id="68" type="typeITSCV" route="7:5TO14:15" depart="222" />
    <vehicle id="69" type="typeITSCV" route="7:5TO16:17" depart="224" />
    <vehicle id="70" type="typeITSCV" route="17:16TO10:11" depart="228" />
    <vehicle id="71" type="typeITSCV" route="7:5TO12:13" depart="235" />
    <vehicle id="72" type="typeITSCV" route="15:14TO4:6" depart="236" />
    <vehicle id="73" type="typeITSCV" route="17:16TO10:11" depart="236" />
    <vehicle id="74" type="typeITSCV" route="19:18TO16:17" depart="240" />
    <vehicle id="75" type="typeITSCV" route="13:12TO4:6" depart="242" />
    <vehicle id="76" type="typeITSCV" route="13:12TO16:17" depart="243" />
    <vehicle id="77" type="typeITSCV" route="6:4TO14:15" depart="244" />
    <vehicle id="78" type="typeITSCV" route="7:5TO4:6" depart="244" />
    <vehicle id="79" type="typeITSCV" route="7:5TO10:11" depart="244" />
    <vehicle id="80" type="typeITSCV" route="6:4TO12:13" depart="245" />
    <vehicle id="81" type="typeITSCV" route="6:4TO10:11" depart="250" />
    <vehicle id="82" type="typeITSCV" route="9:8TO10:11" depart="251" />
    <vehicle id="83" type="typeITSCV" route="19:18TO5:7" depart="253" />
    <vehicle id="84" type="typeITSCV" route="6:4TO8:9" depart="254" />
    <vehicle id="85" type="typeITSCV" route="7:5TO4:6" depart="255" />
    <vehicle id="86" type="typeITSCV" route="7:5TO14:15" depart="260" />
    <vehicle id="87" type="typeITSCV" route="17:16TO10:11" depart="262" />
    <vehicle id="88" type="typeITSCV" route="6:4TO10:11" depart="263" />
    <vehicle id="89" type="typeITSCV" route="7:5TO16:17" depart="264" />
    <vehicle id="90" type="typeITSCV" route="11:10TO8:9" depart="266" />
    <vehicle id="91" type="typeITSCV" route="11:10TO5:7" depart="267" />
    <vehicle id="92" type="typeITSCV" route="13:12TO5:7" depart="267" />
    <vehicle id="93" type="typeITSCV" route="6:4TO12:13" depart="269" />
    <vehicle id="94" type="typeITSCV" route="19:18TO4:6" depart="269" />
    <vehicle id="95" type="typeITSCV" route="6:4TO16:17" depart="278" />
    <vehicle id="96" type="typeITSCV" route="7:5TO14:15" depart="279" />
    <vehicle id="97" type="typeITSCV" route="7:5TO12:13" depart="280" />
    <vehicle id="98" type="typeITSCV" route="6:4TO5:7" depart="286" />
    <vehicle id="99" type="typeITSCV" route="6:4TO14:15" depart="288" />
    <vehicle id="100" type="typeITSCV" route="6:4TO14:15" depart="289" />
    <vehicle id="101" type="typeITSCV" route="6:4TO16:17" depart="290" />
    <vehicle id="102" type="typeITSCV" route="9:8TO10:11" depart="290" />
    <vehicle id="103" type="typeITSCV" route="19:18TO5:7" depart="291" />
    <vehicle id="104" type="typeITSCV" route="11:10TO5:7" depart="292" />
    <vehicle id="105" type="typeITSCV" route="19:18TO14:15" depart="292" />
    <vehicle id="106" type="typeITSCV" route="11:10TO14:15" depart="293" />
    <vehicle id="107" type="typeITSCV" route="15:14TO18:19" depart="296" />
    <vehicle id="108" type="typeITSCV" route="6:4TO5:7" depart="303" />
    <vehicle id="109" type="typeITSCV" route="11:10TO4:6" depart="308" />
    <vehicle id="110" type="typeITSCV" route="11:10TO18:19" depart="311" />
    <vehicle id="111" type="typeITSCV" route="6:4TO18:19" depart="312" />
    <vehicle id="112" type="typeITSCV" route="6:4TO16:17" depart="317" />
    <vehicle id="113" type="typeITSCV" route="7:5TO18:19" depart="318" />
    <vehicle id="114" type="typeITSCV" route="7:5TO10:11" depart="322" />
    <vehicle id="115" type="typeITSCV" route="6:4TO10:11" depart="323" />
    <vehicle id="116" type="typeITSCV" route="6:4TO16:17" depart="324" />
    <vehicle id="117" type="typeITSCV" route="9:8TO12:13" depart="324" />
    <vehicle id="118" type="typeITSCV" route="15:14TO18:19" depart="324" />
    <vehicle id="119" type="typeITSCV" route="11:10TO4:6" depart="328" />
    <vehicle id="120" type="typeITSCV" route="9:8TO5:7" depart="331" />
    <vehicle id="121" type="typeITSCV" route="7:5TO18:19" depart="332" />
    <vehicle id="122" type="typeITSCV" route="15:14TO5:7" depart="334" />
    <vehicle id="123" type="typeITSCV" route="7:5TO8:9" depart="337" />
    <vehicle id="124" type="typeITSCV" route="6:4TO5:7" depart="338" />
    <vehicle id="125" type="typeITSCV" route="11:10TO14:15" depart="341" />
    <vehicle id="126" type="typeITSCV" route="6:4TO18:19" depart="342" />
    <vehicle id="127" type="typeITSCV" route="6:4TO12:13" depart="343" />
    <vehicle id="128" type="typeITSCV" route="6:4TO16:17" depart="346" />
    <vehicle id="129" type="typeITSCV" route="11:10TO18:19" depart="354" />
    <vehicle id="130" type="typeITSCV" route="6:4TO18:19" depart="356" />
    <vehicle id="131" type="typeITSCV" route="15:14TO8:9" depart="359" />
    <vehicle id="132" type="typeITSCV" route="6:4TO16:17" depart="360" />
    <vehicle id="133" type="typeITSCV" route="19:18TO5:7" depart="361" />
    <vehicle id="134" type="typeITSCV" route="7:5TO12:13" depart="362" />
    <vehicle id="135" type="typeITSCV" route="17:16TO18:19" depart="365" />
    <vehicle id="136" type="typeITSCV" route="7:5TO16:17" depart="365" />
    <vehicle id="137" type="typeITSCV" route="17:16TO12:13" depart="367" />
    <vehicle id="138" type="typeITSCV" route="15:14TO18:19" depart="369" />
    <vehicle id="139" type="typeITSCV" route="6:4TO18:19" depart="374" />
    <vehicle id="140" type="typeITSCV" route="11:10TO5:7" depart="375" />
    <vehicle id="141" type="typeITSCV" route="17:16TO8:9" depart="375" />
    <vehicle id="142" type="typeITSCV" route="19:18TO8:9" depart="376" />
    <vehicle id="143" type="typeITSCV" route="7:5TO14:15" depart="377" />
    <vehicle id="144" type="typeITSCV" route="6:4TO8:9" depart="381" />
    <vehicle id="145" type="typeITSCV" route="7:5TO14:15" depart="389" />
    <vehicle id="146" type="typeITSCV" route="19:18TO8:9" depart="390" />
    <vehicle id="147" type="typeITSCV" route="15:14TO5:7" depart="394" />
    <vehicle id="148" type="typeITSCV" route="7:5TO10:11" depart="396" />
    <vehicle id="149" type="typeITSCV" route="17:16TO8:9" depart="397" />
    <vehicle id="150" type="typeITSCV" route="15:14TO16:17" depart="402" />
    <vehicle id="151" type="typeITSCV" route="6:4TO5:7" depart="403" />
    <vehicle id="152" type="typeITSCV" route="7:5TO10:11" depart="403" />
    <vehicle id="153" type="typeITSCV" route="13:12TO18:19" depart="406" />
    <vehicle id="154" type="typeITSCV" route="15:14TO8:9" depart="408" />
    <vehicle id="155" type="typeITSCV" route="15:14TO10:11" depart="408" />
    <vehicle id="156" type="typeITSCV" route="7:5TO16:17" depart="408" />
    <vehicle id="157" type="typeITSCV" route="15:14TO8:9" depart="410" />
    <vehicle id="158" type="typeITSCV" route="15:14TO16:17" depart="414" />
    <vehicle id="159" type="typeITSCV" route="13:12TO10:11" depart="420" />
    <vehicle id="160" type="typeITSCV" route="19:18TO12:13" depart="420" />
    <vehicle id="161" type="typeITSCV" route="7:5TO14:15" depart="422" />
    <vehicle id="162" type="typeITSCV" route="6:4TO8:9" depart="424" />
    <vehicle id="163" type="typeITSCV" route="7:5TO8:9" depart="427" />
    <vehicle id="164" type="typeITSCV" route="19:18TO5:7" depart="429" />
    <vehicle id="165" type="typeITSCV" route="7:5TO14:15" depart="429" />
    <vehicle id="166" type="typeITSCV" route="6:4TO14:15" depart="431" />
    <vehicle id="167" type="typeITSCV" route="11:10TO5:7" depart="431" />
    <vehicle id="168" type="typeITSCV" route="6:4TO5:7" depart="432" />
    <vehicle id="169" type="typeITSCV" route="13:12TO8:9" depart="432" />
    <vehicle id="170" type="typeITSCV" route="15:14TO8:9" depart="432" />
    <vehicle id="171" type="typeITSCV" route="17:16TO18:19" depart="434" />
    <vehicle id="172" type="typeITSCV" route="13:12TO4:6" depart="440" />
    <vehicle id="173" type="typeITSCV" route="11:10TO14:15" depart="443" />
    <vehicle id="174" type="typeITSCV" route="7:5TO8:9" depart="445" />
    <vehicle id="175" type="typeITSCV" route="6:4TO16:17" depart="450" />
    <vehicle id="176" type="typeITSCV" route="9:8TO12:13" depart="451" />
    <vehicle id="177" type="typeITSCV" route="13:12TO10:11" depart="454" />
    <vehicle id="178" type="typeITSCV" route="7:5TO18:19" depart="454" />
    <vehicle id="179" type="typeITSCV" route="17:16TO14:15" depart="458" />
    <vehicle id="180" type="typeITSCV" route="7:5TO14:15" depart="460" />
    <vehicle id="181" type="typeITSCV" route="19:18TO4:6" depart="462" />
    <vehicle id="182" type="typeITSCV" route="7:5TO4:6" depart="462" />
    <vehicle id="183" type="typeITSCV" route="7:5TO18:19" depart="463" />
    <vehicle id="184" type="typeITSCV" route="11:10TO18:19" depart="464" />
    <vehicle id="185" type="typeITSCV" route="7:5TO18:19" depart="464" />
    <vehicle id="186" type="typeITSCV" route="7:5TO8:9" depart="468" />
    <vehicle id="187" type="typeITSCV" route="6:4TO5:7" depart="470" />
    <vehicle id="188" type="typeITSCV" route="6:4TO16:17" depart="473" />
    <vehicle id="189" type="typeITSCV" route="13:12TO5:7" depart="473" />
    <vehicle id="190" type="typeITSCV" route="6:4TO8:9" depart="474" />
    <vehicle id="191" type="typeITSCV" route="6:4TO5:7" depart="478" />
    <vehicle id="192" type="typeITSCV" route="15:14TO10:11" depart="478" />
    <vehicle id="193" type="typeITSCV" route="6:4TO10:11" depart="479" />
    <vehicle id="194" type="typeITSCV" route="15:14TO10:11" depart="479" />
    <vehicle id="195" type="typeITSCV" route="17:16TO14:15" depart="482" />
    <vehicle id="196" type="typeITSCV" route="7:5TO16:17" depart="489" />
    <vehicle id="197" type="typeITSCV" route="13:12TO5:7" depart="493" />
    <vehicle id="198" type="typeITSCV" route="6:4TO5:7" depart="497" />
    <vehicle id="199" type="typeITSCV" route="13:12TO4:6" depart="499" />
    <vehicle id="200" type="typeITSCV" route="7:5TO18:19" depart="505" />
    <vehicle id="201" type="typeITSCV" route="13:12TO18:19" depart="506" />
    <vehicle id="202" type="typeITSCV" route="15:14TO4:6" depart="507" />
    <vehicle id="203" type="typeITSCV" route="6:4TO16:17" depart="508" />
    <vehicle id="204" type="typeITSCV" route="9:8TO4:6" depart="508" />
    <vehicle id="205" type="typeITSCV" route="6:4TO10:11" depart="509" />
    <vehicle id="206" type="typeITSCV" route="15:14TO16:17" depart="509" />
    <vehicle id="207" type="typeITSCV" route="6:4TO8:9" depart="516" />
    <vehicle id="208" type="typeITSCV" route="7:5TO18:19" depart="516" />
    <vehicle id="209" type="typeITSCV" route="7:5TO4:6" depart="520" />
    <vehicle id="210" type="typeITSCV" route="19:18TO5:7" depart="521" />
    <vehicle id="211" type="typeITSCV" route="19:18TO4:6" depart="522" />
    <vehicle id="212" type="typeITSCV" route="13:12TO10:11" depart="531" />
    <vehicle id="213" type="typeITSCV" route="17:16TO12:13" depart="533" />
    <vehicle id="214" type="typeITSCV" route="6:4TO16:17" depart="534" />
    <vehicle id="215" type="typeITSCV" route="7:5TO4:6" depart="536" />
    <vehicle id="216" type="typeITSCV" route="6:4TO16:17" depart="544" />
    <vehicle id="217" type="typeITSCV" route="6:4TO10:11" depart="547" />
    <vehicle id="218" type="typeITSCV" route="7:5TO10:11" depart="549" />
    <vehicle id="219" type="typeITSCV" route="6:4TO8:9" depart="552" />
    <vehicle id="220" type="typeITSCV" route="19:18TO8:9" depart="555" />
    <vehicle id="221" type="typeITSCV" route="7:5TO14:15" depart="561" />
    <vehicle id="222" type="typeITSCV" route="13:12TO10:11" depart="565" />
    <vehicle id="223" type="typeITSCV" route="7:5TO12:13" depart="570" />
    <vehicle id="224" type="typeITSCV" route="6:4TO12:13" depart="571" />
    <vehicle id="225" type="typeITSCV" route="11:10TO12:13" depart="573" />
    <vehicle id="226" type="typeITSCV" route="7:5TO14:15" depart="577" />
    <vehicle id="227" type="typeITSCV" route="7:5TO12:13" depart="578" />
    <vehicle id="228" type="typeITSCV" route="19:18TO16:17" depart="585" />
    <vehicle id="229" type="typeITSCV" route="13:12TO10:11" depart="588" />
    <vehicle id="230" type="typeITSCV" route="7:5TO4:6" depart="594" />
    <vehicle id="231" type="typeITSCV" route="6:4TO10:11" depart="600" />
    <vehicle id="232" type="typeITSCV" route="11:10TO8:9" depart="600" />
    <vehicle id="233" type="typeITSCV" route="17:16TO10:11" depart="600" />
    <vehicle id="234" type="typeITSCV" route="7:5TO12:13" depart="602" />
    <vehicle id="235" type="typeITSCV" route="15:14TO12:13" depart="606" />
    <vehicle id="236" type="typeITSCV" route="17:16TO10:11" depart="611" />
    <vehicle id="237" type="typeITSCV" route="6:4TO14:15" depart="620" />
    <vehicle id="238" type="typeITSCV" route="19:18TO8:9" depart="621" />
    <vehicle id="239" type="typeITSCV" route="9:8TO18:19" depart="623" />
    <vehicle id="240" type="typeITSCV" route="7:5TO12:13" depart="623" />
    <vehicle id="241" type="typeITSCV" route="19:18TO5:7" depart="625" />
    <vehicle id="242" type="typeITSCV" route="6:4TO8:9" depart="627" />
    <vehicle id="243" type="typeITSCV" route="9:8TO16:17" depart="628" />
    <vehicle id="244" type="typeITSCV" route="9:8TO12:13" depart="629" />
    <vehicle id="245" type="typeITSCV" route="19:18TO14:15" depart="633" />
    <vehicle id="246" type="typeITSCV" route="6:4TO5:7" depart="636" />
    <vehicle id="247" type="typeITSCV" route="13:12TO10:11" depart="636" />
    <vehicle id="248" type="typeITSCV" route="13:12TO8:9" depart="636" />
    <vehicle id="249" type="typeITSCV" route="6:4TO8:9" depart="638" />
    <vehicle id="250" type="typeITSCV" route="7:5TO14:15" depart="638" />
    <vehicle id="251" type="typeITSCV" route="6:4TO16:17" depart="643" />
    <vehicle id="252" type="typeITSCV" route="19:18TO16:17" depart="647" />
    <vehicle id="253" type="typeITSCV" route="7:5TO14:15" depart="648" />
    <vehicle id="254" type="typeITSCV" route="7:5TO14:15" depart="650" />
    <vehicle id="255" type="typeITSCV" route="19:18TO10:11" depart="651" />
    <vehicle id="256" type="typeITSCV" route="6:4TO10:11" depart="654" />
    <vehicle id="257" type="typeITSCV" route="19:18TO4:6" depart="655" />
    <vehicle id="258" type="typeITSCV" route="7:5TO4:6" depart="655" />
    <vehicle id="259" type="typeITSCV" route="6:4TO10:11" depart="656" />
    <vehicle id="260" type="typeITSCV" route="13:12TO4:6" depart="657" />
    <vehicle id="261" type="typeITSCV" route="6:4TO5:7" depart="658" />
    <vehicle id="262" type="typeITSCV" route="7:5TO14:15" depart="658" />
    <vehicle id="263" type="typeITSCV" route="9:8TO5:7" depart="660" />
    <vehicle id="264" type="typeITSCV" route="13:12TO18:19" depart="660" />
    <vehicle id="265" type="typeITSCV" route="9:8TO16:17" depart="665" />
    <vehicle id="266" type="typeITSCV" route="7:5TO8:9" depart="666" />
    <vehicle id="267" type="typeITSCV" route="11:10TO4:6" depart="675" />
    <vehicle id="268" type="typeITSCV" route="11:10TO12:13" depart="675" />
    <vehicle id="269" type="typeITSCV" route="6:4TO5:7" depart="679" />
    <vehicle id="270" type="typeITSCV" route="13:12TO14:15" depart="681" />
    <vehicle id="271" type="typeITSCV" route="11:10TO4:6" depart="683" />
    <vehicle id="272" type="typeITSCV" route="7:5TO4:6" depart="700" />
    <vehicle id="273" type="typeITSCV" route="19:18TO5:7" depart="701" />
    <vehicle id="274" type="typeITSCV" route="15:14TO10:11" depart="705" />
    <vehicle id="275" type="typeITSCV" route="6:4TO8:9" depart="707" />
    <vehicle id="276" type="typeITSCV" route="9:8TO14:15" depart="709" />
    <vehicle id="277" type="typeITSCV" route="7:5TO18:19" depart="712" />
    <vehicle id="278" type="typeITSCV" route="7:5TO18:19" depart="714" />
    <vehicle id="279" type="typeITSCV" route="6:4TO18:19" depart="715" />
    <vehicle id="280" type="typeITSCV" route="13:12TO5:7" depart="722" />
    <vehicle id="281" type="typeITSCV" route="15:14TO10:11" depart="724" />
    <vehicle id="282" type="typeITSCV" route="7:5TO10:11" depart="726" />
    <vehicle id="283" type="typeITSCV" route="6:4TO10:11" depart="731" />
    <vehicle id="284" type="typeITSCV" route="6:4TO12:13" depart="738" />
    <vehicle id="285" type="typeITSCV" route="6:4TO5:7" depart="740" />
    <vehicle id="286" type="typeITSCV" route="17:16TO4:6" depart="742" />
    <vehicle id="287" type="typeITSCV" route="15:14TO18:19" depart="744" />
    <vehicle id="288" type="typeITSCV" route="6:4TO16:17" depart="746" />
    <vehicle id="289" type="typeITSCV" route="13:12TO18:19" depart="746" />
    <vehicle id="290" type="typeITSCV" route="6:4TO12:13" depart="756" />
    <vehicle id="291" type="typeITSCV" route="9:8TO4:6" depart="756" />
    <vehicle id="292" type="typeITSCV" route="6:4TO18:19" depart="766" />
    <vehicle id="293" type="typeITSCV" route="19:18TO16:17" depart="766" />
    <vehicle id="294" type="typeITSCV" route="15:14TO4:6" depart="767" />
    <vehicle id="295" type="typeITSCV" route="7:5TO4:6" depart="767" />
    <vehicle id="296" type="typeITSCV" route="15:14TO12:13" depart="774" />
    <vehicle id="297" type="typeITSCV" route="13:12TO8:9" depart="776" />
    <vehicle id="298" type="typeITSCV" route="7:5TO14:15" depart="779" />
    <vehicle id="299" type="typeITSCV" route="15:14TO5:7" depart="784" />
    <vehicle id="300" type="typeITSCV" route="7:5TO8:9" depart="784" />
    <vehicle id="301" type="typeITSCV" route="13:12TO4:6" depart="785" />
    <vehicle id="302" type="typeITSCV" route="7:5TO8:9" depart="790" />
    <vehicle id="303" type="typeITSCV" route="13:12TO18:19" depart="794" />
    <vehicle id="304" type="typeITSCV" route="7:5TO4:6" depart="799" />
    <vehicle id="305" type="typeITSCV" route="7:5TO12:13" depart="799" />
    <vehicle id="306" type="typeITSCV" route="19:18TO14:15" depart="802" />
    <vehicle id="307" type="typeITSCV" route="6:4TO12:13" depart="805" />
    <vehicle id="308" type="typeITSCV" route="7:5TO18:19" depart="805" />
    <vehicle id="309" type="typeITSCV" route="17:16TO5:7" depart="807" />
    <vehicle id="310" type="typeITSCV" route="17:16TO12:13" depart="810" />
    <vehicle id="311" type="typeITSCV" route="7:5TO18:19" depart="812" />
    <vehicle id="312" type="typeITSCV" route="13:12TO5:7" depart="813" />
    <vehicle id="313" type="typeITSCV" route="19:18TO16:17" depart="814" />
    <vehicle id="314" type="typeITSCV" route="17:16TO5:7" depart="816" />
    <vehicle id="315" type="typeITSCV" route="7:5TO4:6" depart="816" />
    <vehicle id="316" type="typeITSCV" route="15:14TO18:19" depart="819" />
    <vehicle id="317" type="typeITSCV" route="6:4TO5:7" depart="820" />
    <vehicle id="318" type="typeITSCV" route="17:16TO14:15" depart="820" />
    <vehicle id="319" type="typeITSCV" route="9:8TO16:17" depart="821" />
    <vehicle id="320" type="typeITSCV" route="13:12TO5:7" depart="822" />
    <vehicle id="321" type="typeITSCV" route="15:14TO16:17" depart="825" />
    <vehicle id="322" type="typeITSCV" route="6:4TO12:13" depart="827" />
    <vehicle id="323" type="typeITSCV" route="11:10TO18:19" depart="828" />
    <vehicle id="324" type="typeITSCV" route="13:12TO4:6" depart="831" />
    <vehicle id="325" type="typeITSCV" route="17:16TO10:11" depart="831" />
    <vehicle id="326" type="typeITSCV" route="7:5TO18:19" depart="834" />
    <vehicle id="327" type="typeITSCV" route="9:8TO18:19" depart="835" />
    <vehicle id="328" type="typeITSCV" route="13:12TO8:9" depart="836" />
    <vehicle id="329" type="typeITSCV" route="13:12TO5:7" depart="837" />
    <vehicle id="330" type="typeITSCV" route="6:4TO8:9" depart="846" />
    <vehicle id="331" type="typeITSCV" route="6:4TO12:13" depart="846" />
    <vehicle id="332" type="typeITSCV" route="11:10TO14:15" depart="846" />
    <vehicle id="333" type="typeITSCV" route="6:4TO10:11" depart="847" />
    <vehicle id="334" type="typeITSCV" route="11:10TO8:9" depart="847" />
    <vehicle id="335" type="typeITSCV" route="15:14TO4:6" depart="847" />
    <vehicle id="336" type="typeITSCV" route="17:16TO10:11" depart="848" />
    <vehicle id="337" type="typeITSCV" route="15:14TO16:17" depart="849" />
    <vehicle id="338" type="typeITSCV" route="6:4TO14:15" depart="852" />
    <vehicle id="339" type="typeITSCV" route="17:16TO8:9" depart="852" />
    <vehicle id="340" type="typeITSCV" route="7:5TO12:13" depart="861" />
    <vehicle id="341" type="typeITSCV" route="11:10TO18:19" depart="862" />
    <vehicle id="342" type="typeITSCV" route="6:4TO16:17" depart="866" />
    <vehicle id="343" type="typeITSCV" route="19:18TO4:6" depart="872" />
    <vehicle id="344" type="typeITSCV" route="7:5TO18:19" depart="873" />
    <vehicle id="345" type="typeITSCV" route="7:5TO8:9" depart="874" />
    <vehicle id="346" type="typeITSCV" route="6:4TO18:19" depart="875" />
    <vehicle id="347" type="typeITSCV" route="13:12TO8:9" depart="875" />
    <vehicle id="348" type="typeITSCV" route="7:5TO14:15" depart="875" />
    <vehicle id="349" type="typeITSCV" route="9:8TO14:15" depart="877" />
    <vehicle id="350" type="typeITSCV" route="19:18TO8:9" depart="879" />
    <vehicle id="351" type="typeITSCV" route="6:4TO18:19" depart="882" />